 ****** HSPICE -- A-2008.03 32-BIT (Feb 26 2008) winnt ******                   
  Copyright (C) 2008 Synopsys, Inc. All Rights Reserved.                        
  Unpublished-rights reserved under US copyright laws.
  This program is protected by law and is subject to the 
  terms and conditions of the license agreement found in:
    C:\synopsys\Hspice_A-2008.03\license.warn
  Use of this program is your acceptance to be bound by this 
  license agreement. HSPICE is the trademark of Synopsys, Inc.
  Input File: e:\programing\hspice\practice_01\cau2.sp                          
 Init: read install configuration file: C:\synopsys\Hspice_A-2008.03\meta.cfg
 Init: hspice initialization file: C:\synopsys\Hspice_A-2008.03\hspice.ini




 v1	1	0	5v
 r1	1	2	330
 d1	0	2	da1n4004
 .model da1n4004 d (is=18.8n rs=0 bv=400 ibv=5.00u cjo=30 m=0.333 n=2)
 .dc v1	0	5	0.067
 .plot	v(1)	i(d1)	v(d1)
 .end
1****** HSPICE -- A-2008.03 32-BIT (Feb 26 2008) winnt ******                   
 ******  
 .option post                                                                   
  ******  diode model parameters           tnom=  25.000 temp=  25.000          
 ******  
 ********************************************************
 *** common model parameters model name:   0:da1n4004****
 ********************************************************

     names  values   units     names  values   units     names  values   units
     -----  ------   -----     -----  ------   -----     -----  ------   -----

   1*** dc breakdown parameters ***
       vb= 400.00  volts        ibv=   5.00u amps   

   2*** parasitic resistance parameters ***
       rs=   0.    ohms   

   3*** capacitance parameters ***
       fc= 500.00m              fcs= 500.00m                m= 333.00m        
     mjsw= 330.00m               pb= 800.00m volts        php= 800.00m volts  
       tt=   0.    secs         cjo=  30.00  f/area       cjp=   0.    f/pj   

   4*** temperature effect parameters ***
     tlev=   0.               tlevc=   0.                 tcv=   0.    v/deg k
      trs=   0.    /deg         cta=   0.    /deg         ctp=   0.    /deg   
      xti=   3.00            xtitun=   3.00               keg=   1.00         
       eg=   1.11  ev          gap1= 702.00u  ev/deg     gap2=   1.11k  deg   
     ttt1=   0.    /deg        ttt2=   0.    /deg2        tm1=   0.    /deg   
      tm2=   0.    /deg2        tpb=   0.    v/deg k     tphp=   0.    v/deg k
     tref=  25.00   deg c 

   5*** noise parameters ***
       kf=   0.                  af=   1.00         

   ***  level   1  model parameters  ***

    level=   1.00                is=  18.80n amps         jsw=   0.    amps   
        n=   2.00               nbv=   2.00                ik=   0.    amp    
     area=   1.00                pj=   0.                 ikr=   0.    amp    
    expli=   0.    amps      explir=   0.    amps        jtun=   0.    amps   
   jtunsw=   0.    amps        ntun=  30.00         
  
 **warning**  attempt to reference undefined node     0:d1              
  in the definition of v(d1,0)
   branch - output ignored

 
      
 ******  
 .option post                                                                   
  ******  dc transfer curves               tnom=  25.000 temp=  25.000          
 ******  

a


 legend:

  a: v(1)
  b: i(d1)

      volt       v(1)
 (a       )       0.            2.0000        4.0000        6.0000       8.0000 
 (b       )     -20.0000n     -15.0000n     -10.0000n      -5.0000n      0.     
                      +             +             +             +             + 
    0.         0.    -a------+------+------+------+------+------+------+------b-
   67.0000m   67.000m a      +      +   b  +      +      +      +      +      + 
  134.0000m  134.000m +a     b      +      +      +      +      +      +      + 
  201.0000m  201.000m +a  b  +      +      +      +      +      +      +      + 
  268.0000m  268.000m + a b  +      +      +      +      +      +      +      + 
  335.0000m  335.000m + ab   +      +      +      +      +      +      +      + 
  402.0000m  402.000m +  2   +      +      +      +      +      +      +      + 
  469.0000m  469.000m +  2   +      +      +      +      +      +      +      + 
  536.0000m  536.000m +  ba  +      +      +      +      +      +      +      + 
  603.0000m  603.000m +  ba  +      +      +      +      +      +      +      + 
  670.0000m  670.000m-+--b-a-+------+------+------+------+------+------+------+-
  737.0000m  737.000m +  b a +      +      +      +      +      +      +      + 
  804.0000m  804.000m +  b  a+      +      +      +      +      +      +      + 
  871.0000m  871.000m +  b  a+      +      +      +      +      +      +      + 
  938.0000m  938.000m +  b   a      +      +      +      +      +      +      + 
    1.0050     1.005  +  b   a      +      +      +      +      +      +      + 
    1.0720     1.072  +  b   +a     +      +      +      +      +      +      + 
    1.1390     1.139  +  b   +a     +      +      +      +      +      +      + 
    1.2060     1.206  +  b   +a     +      +      +      +      +      +      + 
    1.2730     1.273  +  b   + a    +      +      +      +      +      +      + 
    1.3400     1.340 -+--b---+-a----+------+------+------+------+------+------+-
    1.4070     1.407  +  b   +  a   +      +      +      +      +      +      + 
    1.4740     1.474  +  b   +  a   +      +      +      +      +      +      + 
    1.5410     1.541  +  b   +   a  +      +      +      +      +      +      + 
    1.6080     1.608  +  b   +   a  +      +      +      +      +      +      + 
    1.6750     1.675  +  b   +    a +      +      +      +      +      +      + 
    1.7420     1.742  +  b   +    a +      +      +      +      +      +      + 
    1.8090     1.809  +  b   +     a+      +      +      +      +      +      + 
    1.8760     1.876  +  b   +     a+      +      +      +      +      +      + 
    1.9430     1.943  +  b   +      a      +      +      +      +      +      + 
    2.0100     2.010 -+--b---+------a------+------+------+------+------+------+-
    2.0770     2.077  +  b   +      +a     +      +      +      +      +      + 
    2.1440     2.144  +  b   +      +a     +      +      +      +      +      + 
    2.2110     2.211  +  b   +      +a     +      +      +      +      +      + 
    2.2780     2.278  +  b   +      + a    +      +      +      +      +      + 
    2.3450     2.345  +  b   +      + a    +      +      +      +      +      + 
    2.4120     2.412  +  b   +      +  a   +      +      +      +      +      + 
    2.4790     2.479  +  b   +      +  a   +      +      +      +      +      + 
    2.5460     2.546  +  b   +      +   a  +      +      +      +      +      + 
    2.6130     2.613  +  b   +      +   a  +      +      +      +      +      + 
    2.6800     2.680 -+--b---+------+----a-+------+------+------+------+------+-
    2.7470     2.747  +  b   +      +    a +      +      +      +      +      + 
    2.8140     2.814  +  b   +      +     a+      +      +      +      +      + 
    2.8810     2.881  +  b   +      +     a+      +      +      +      +      + 
    2.9480     2.948  +  b   +      +      a      +      +      +      +      + 
    3.0150     3.015  +  b   +      +      a      +      +      +      +      + 
    3.0820     3.082  +  b   +      +      +a     +      +      +      +      + 
    3.1490     3.149  +  b   +      +      +a     +      +      +      +      + 
    3.2160     3.216  +  b   +      +      + a    +      +      +      +      + 
    3.2830     3.283  +  b   +      +      + a    +      +      +      +      + 
    3.3500     3.350 -+--b---+------+------+-a----+------+------+------+------+-
    3.4170     3.417  +  b   +      +      +  a   +      +      +      +      + 
    3.4840     3.484  +  b   +      +      +  a   +      +      +      +      + 
    3.5510     3.551  +  b   +      +      +   a  +      +      +      +      + 
    3.6180     3.618  +  b   +      +      +   a  +      +      +      +      + 
    3.6850     3.685  +  b   +      +      +    a +      +      +      +      + 
    3.7520     3.752  +  b   +      +      +    a +      +      +      +      + 
    3.8190     3.819  +  b   +      +      +     a+      +      +      +      + 
    3.8860     3.886  +  b   +      +      +     a+      +      +      +      + 
    3.9530     3.953  +  b   +      +      +      a      +      +      +      + 
    4.0200     4.020 -+--b---+------+------+------a------+------+------+------+-
    4.0870     4.087  +  b   +      +      +      +a     +      +      +      + 
    4.1540     4.154  +  b   +      +      +      +a     +      +      +      + 
    4.2210     4.221  +  b   +      +      +      + a    +      +      +      + 
    4.2880     4.288  +  b   +      +      +      + a    +      +      +      + 
    4.3550     4.355  +  b   +      +      +      + a    +      +      +      + 
    4.4220     4.422  +  b   +      +      +      +  a   +      +      +      + 
    4.4890     4.489  +  b   +      +      +      +  a   +      +      +      + 
    4.5560     4.556  +  b   +      +      +      +   a  +      +      +      + 
    4.6230     4.623  +  b   +      +      +      +   a  +      +      +      + 
    4.6900     4.690 -+--b---+------+------+------+----a-+------+------+------+-
    4.7570     4.757  +  b   +      +      +      +    a +      +      +      + 
    4.8240     4.824  +  b   +      +      +      +     a+      +      +      + 
    4.8910     4.891  +  b   +      +      +      +     a+      +      +      + 
    4.9580     4.958  +  b   +      +      +      +      a      +      +      + 
                      +             +             +             +             + 

b


          ***** job concluded
1****** HSPICE -- A-2008.03 32-BIT (Feb 26 2008) winnt ******                   
 ******  
 .option post                                                                   
  ******  job statistics summary           tnom=  25.000 temp=  25.000          
 ******  

           total memory used        156 kbytes

  # nodes =       4 # elements=       4
  # diodes=       1 # bjts    =       0 # jfets   =       0 # mosfets =       0
  # va device =       0

    analysis           time    # points   tot. iter  conv.iter

    op point           0.00           1           0
    dc sweep           0.00          75         160
    readin             0.00
    errchk             0.00
    setup              0.01
    output             0.00
           total cpu time          0.03 seconds
           total elapsed time         1 seconds
               job started at  10:22:33 10/24/2010
               job ended   at  10:22:33 10/24/2010


 Init: hspice initialization file: C:\synopsys\Hspice_A-2008.03\hspice.ini
