***** HSPICE -- A-2008.03 32-BIT (Feb 26 2008) winnt ******
 Input File: e:\programing\hspice\test.sp
 lic:
 lic: FLEXlm: v8.5b
 lic: USER:   TRUNG-NGHIA          HOSTNAME: TRUNG-NGHIA
 lic: HOSTID: "3085a9995677 503eaa4bfef2 523eaa4bfef2 503eaa4bfef2" PID:      36
 lic: Using FLEXlm license file:
 lic: C:\Flexlm\Hspice_2007-09.lic
 lic: Checkout 1 hspice
 lic: License/Maintenance for hspice will expire on 31-dec-2020/2007.9
 lic: NODE LOCKED license on hostid "3085a9995677 503eaa4bfef2 523eaa4bfef2 503e
 lic:
 Init: hspice initialization file: C:\synopsys\Hspice_A-2008.03\hspice.ini
 init: begin read circuit files,  cpu clock=  8.70E-02
 init: end read circuit files,  cpu clock=  8.70E-02 memory=     14 kb
 init: begin check errors,  cpu clock=  8.70E-02
 init: end check errors,  cpu clock=  1.03E-01 memory=     14 kb
 init: begin setup matrix, pivot=    10 cpu clock=  1.03E-01
       establish matrix -- done,  cpu clock=  1.03E-01 memory=     14 kb
       re-order matrix -- done,  cpu clock=  1.03E-01 memory=     15 kb
 init: end setup matrix,  cpu clock=  2.23E-01 memory=     24 kb
 dcop: begin dcop,  cpu clock=  2.23E-01
 dcop: end dcop,  cpu clock=  2.23E-01 memory=     24 kb  tot_iter=       3
 output: e:\programing\hspice\test.tr0
 sweep: tran tran0    begin, stop_t=  1.00E-09 #sweeps=  51 cpu clock=  2.23E-01
 tran: time= 1.2500E-10 tot_iter=      10 conv_iter=       5 cpu clock= 2.38E-01
 tran: time= 2.3052E-10 tot_iter=      32 conv_iter=      16 cpu clock= 2.81E-01
 tran: time= 3.3052E-10 tot_iter=      34 conv_iter=      17 cpu clock= 2.97E-01
 tran: time= 4.3052E-10 tot_iter=      36 conv_iter=      18 cpu clock= 2.97E-01
 tran: time= 5.3052E-10 tot_iter=      38 conv_iter=      19 cpu clock= 3.13E-01
 tran: time= 6.3052E-10 tot_iter=      40 conv_iter=      20 cpu clock= 3.28E-01
 tran: time= 7.3052E-10 tot_iter=      42 conv_iter=      21 cpu clock= 3.44E-01
 tran: time= 8.3052E-10 tot_iter=      44 conv_iter=      22 cpu clock= 3.51E-01
 tran: time= 9.3052E-10 tot_iter=      46 conv_iter=      23 cpu clock= 3.76E-01
 tran: time= 1.0000E-09 tot_iter=      48 conv_iter=      24 cpu clock= 3.91E-01
 sweep: tran tran0    end,  cpu clock=  3.91E-01 memory=     24 kb
>info:         ***** hspice job concluded
 Init: hspice initialization file: C:\synopsys\Hspice_A-2008.03\hspice.ini
 lic: Release hspice token(s)
