 ****** HSPICE -- A-2008.03 32-BIT (Feb 26 2008) winnt ******                   
  Copyright (C) 2008 Synopsys, Inc. All Rights Reserved.                        
  Unpublished-rights reserved under US copyright laws.
  This program is protected by law and is subject to the 
  terms and conditions of the license agreement found in:
    C:\synopsys\Hspice_A-2008.03\license.warn
  Use of this program is your acceptance to be bound by this 
  license agreement. HSPICE is the trademark of Synopsys, Inc.
  Input File: e:\programing\hspice\test.sp                                      
 Init: read install configuration file: C:\synopsys\Hspice_A-2008.03\meta.cfg
 Init: hspice initialization file: C:\synopsys\Hspice_A-2008.03\hspice.ini




 vin	in	gnd	pwl	0ps 0 100ps 0 150ps 1.0 1ns 1.0
 r1	in	a	2k
 l1	a	out	0.5u
 c1	out	gnd	100f
 .tran 20ps 1ns
 .plot v(in) v(out)

 ***********************************************************************
 ** runlvl is invoked, you can disable it by:
      a) Add option runlvl=0 to your current simulation job.
      b) Copy $installdir/hspice.ini to your HOME directory and
         customize it by adding option runlvl=0, which disables
         it for all of your simulation jobs.
      c) Re-invoke $installdir/bin/config program and unselect the
         option runlvl setting in box 'hspice.ini' which disables
         it for whole group simulation jobs.

 ** runlvl is invoked, some options are ignored or automatically set:
      Options below are automatically set(user setting will overwrite them):
      if runlvl=6,            .option bypass=0
      if runlvl=[1|2|3|4|5],  .option bypass=2

      Options below are ignored, they are replaced by automated algorithms:
        lvltim    dvdt      ft    fast   trtol  absvar  relvar
          relq  chgtol    dvtr    imin    itl3    rmax

 ** runlvl is invoked, actual option value used by HSPICE are:
       runlvl= 3       bypass= 2      mbypass=   2.00   bytol= 100.00u
 ***********************************************************************


 **warning** dc voltage reset to initial transient source value
             in source        0:vin                 new dc=  0.0000D+00

 
      
1****** HSPICE -- A-2008.03 32-BIT (Feb 26 2008) winnt ******                   
 ******  
 .option post                                                                   
  ******  operating point information      tnom=  25.000 temp=  25.000          
 ******  
 ***** operating point status is voltage   simulation time is     0.     
    node    =voltage      node    =voltage      node    =voltage

 +0:a       =   0.      0:in      =   0.      0:out     =   0.     

 ******  
 .option post                                                                   
  ******  transient analysis               tnom=  25.000 temp=  25.000          
 ******  

a


 legend:

  a: v(in)
  b: v(out)

      time       v(in)
 (ab      )       0.          500.0000m       1.0000        1.5000       2.0000 
                      +             +             +             +             + 
    0.         0.    -2------+------+------+------+------+------+------+------+-
   20.0000p    0.     2      +      +      +      +      +      +      +      + 
   40.0000p    0.     2      +      +      +      +      +      +      +      + 
   60.0000p    0.     2      +      +      +      +      +      +      +      + 
   80.0000p    0.     2      +      +      +      +      +      +      +      + 
  100.0000p    0.     2      +      +      +      +      +      +      +      + 
  120.0000p  400.000m b      +   a  +      +      +      +      +      +      + 
  140.0000p  800.000m b      +      +      +a     +      +      +      +      + 
  160.0000p    1.000  b      +      +      +      a      +      +      +      + 
  180.0000p    1.000  +b     +      +      +      a      +      +      +      + 
  200.0000p    1.000 -+-b----+------+------+------a------+------+------+------+-
  220.0000p    1.000  + b    +      +      +      a      +      +      +      + 
  240.0000p    1.000  +  b   +      +      +      a      +      +      +      + 
  260.0000p    1.000  +   b  +      +      +      a      +      +      +      + 
  280.0000p    1.000  +     b+      +      +      a      +      +      +      + 
  300.0000p    1.000  +      b      +      +      a      +      +      +      + 
  320.0000p    1.000  +      +b     +      +      a      +      +      +      + 
  340.0000p    1.000  +      + b    +      +      a      +      +      +      + 
  360.0000p    1.000  +      +  b   +      +      a      +      +      +      + 
  380.0000p    1.000  +      +    b +      +      a      +      +      +      + 
  400.0000p    1.000 -+------+-----b+------+------a------+------+------+------+-
  420.0000p    1.000  +      +      +b     +      a      +      +      +      + 
  440.0000p    1.000  +      +      + b    +      a      +      +      +      + 
  460.0000p    1.000  +      +      +  b   +      a      +      +      +      + 
  480.0000p    1.000  +      +      +    b +      a      +      +      +      + 
  500.0000p    1.000  +      +      +     b+      a      +      +      +      + 
  520.0000p    1.000  +      +      +      +b     a      +      +      +      + 
  540.0000p    1.000  +      +      +      + b    a      +      +      +      + 
  560.0000p    1.000  +      +      +      +  b   a      +      +      +      + 
  580.0000p    1.000  +      +      +      +   b  a      +      +      +      + 
  600.0000p    1.000 -+------+------+------+----b-a------+------+------+------+-
  620.0000p    1.000  +      +      +      +     ba      +      +      +      + 
  640.0000p    1.000  +      +      +      +      2      +      +      +      + 
  660.0000p    1.000  +      +      +      +      ab     +      +      +      + 
  680.0000p    1.000  +      +      +      +      a b    +      +      +      + 
  700.0000p    1.000  +      +      +      +      a b    +      +      +      + 
  720.0000p    1.000  +      +      +      +      a  b   +      +      +      + 
  740.0000p    1.000  +      +      +      +      a   b  +      +      +      + 
  760.0000p    1.000  +      +      +      +      a   b  +      +      +      + 
  780.0000p    1.000  +      +      +      +      a    b +      +      +      + 
  800.0000p    1.000 -+------+------+------+------a----b-+------+------+------+-
  820.0000p    1.000  +      +      +      +      a    b +      +      +      + 
  840.0000p    1.000  +      +      +      +      a     b+      +      +      + 
  860.0000p    1.000  +      +      +      +      a     b+      +      +      + 
  880.0000p    1.000  +      +      +      +      a     b+      +      +      + 
  900.0000p    1.000  +      +      +      +      a     b+      +      +      + 
  920.0000p    1.000  +      +      +      +      a     b+      +      +      + 
  940.0000p    1.000  +      +      +      +      a     b+      +      +      + 
  960.0000p    1.000  +      +      +      +      a     b+      +      +      + 
  980.0000p    1.000  +      +      +      +      a     b+      +      +      + 
    1.0000n    1.000 -+------+------+------+------a-----b+------+------+------+-
                      +             +             +             +             + 

b


          ***** job concluded
1****** HSPICE -- A-2008.03 32-BIT (Feb 26 2008) winnt ******                   
 ******  
 .option post                                                                   
  ******  job statistics summary           tnom=  25.000 temp=  25.000          
 ******  

           total memory used         24 kbytes

  # nodes =       4 # elements=       4
  # diodes=       0 # bjts    =       0 # jfets   =       0 # mosfets =       0
  # va device =       0

    analysis           time    # points   tot. iter  conv.iter

    op point           0.00           1           3
    transient          0.15          51          50          25 rev=         2
    readin             0.00
    errchk             0.02
    setup              0.12
    output             0.00
           total cpu time          0.33 seconds
           total elapsed time         1 seconds
               job started at  18:28:08 10/19/2010
               job ended   at  18:28:08 10/19/2010


 Init: hspice initialization file: C:\synopsys\Hspice_A-2008.03\hspice.ini
