 ****** HSPICE -- A-2008.03 32-BIT (Feb 26 2008) winnt ******                   
  Copyright (C) 2008 Synopsys, Inc. All Rights Reserved.                        
  Unpublished-rights reserved under US copyright laws.
  This program is protected by law and is subject to the 
  terms and conditions of the license agreement found in:
    C:\synopsys\Hspice_A-2008.03\license.warn
  Use of this program is your acceptance to be bound by this 
  license agreement. HSPICE is the trademark of Synopsys, Inc.
  Input File: e:\programing\hspice\cuoi_ki\cau1.sp                              
 Init: read install configuration file: C:\synopsys\Hspice_A-2008.03\meta.cfg
 Init: hspice initialization file: C:\synopsys\Hspice_A-2008.03\hspice.ini




 vce	2	0
 ib	0	1
 q1	2	1	0	npn
 .model		npn	npn	(is=1f bf=200)
 .dc	vce	-3 3 20m	ib	0 25u 5u
 .plot i(q1)
1****** HSPICE -- A-2008.03 32-BIT (Feb 26 2008) winnt ******                   
 ******  
 .option post                                                                   
  ******  bjt   model parameters           tnom=  25.000 temp=  25.000          
 ******  

 ************************************************************************
 *** bjt model parameters   model name:   0:npn      model type:npn   ***
 ************************************************************************

     names  values   units     names  values   units     names  values   units
     -----  ------   -----     -----  ------   -----     -----  ------   -----

   1*** basic dc parameters ***
    level=   1.00                bf= 200.00                br=   1.00         
      brs=   0.                bulk=  gnd                  is=   1.00f amps   
      iss=   0.    amps          nf=   1.00                nr=   1.00         
       ns=   1.00               ibe=   0.    amps         ibc=   0.    amps   
     subs=   1.00             expli=   0.    amps   

   2*** low current beta degradation effect parameters ***
      isc=   0.    amps         ise=   0.    amps          nc=   2.00         
       ne=   1.50         

   3*** base width modulation parameters ***
      vaf=   0.    volts        var=   0.    volts  

   4*** high current beta degradation effect parameters ***
      ikf=   0.    amps         nkf= 500.00m              ikr=   0.    amps   

   5*** parasitic resistor parameters ***
      irb=   0.    amps          rb=   0.    ohms         rbm=   0.    ohms   
       re=   0.    ohms          rc=   0.    ohms          vo=   0.    volts  
    gamma=   0.           

   6*** junction capacitor parameters ***
     cbcp=   0.    farad       cbep=   0.    farad       ccsp=   0.    farad  
      cjc=   0.    farad        cje=   0.    farad        cjs=   0.    farad  
       fc= 500.00m              mjc= 330.00m              mje= 330.00m        
      mjs= 500.00m              vjc= 750.00m volts        vje= 750.00m volts  
      vjs= 750.00m volts       xcjc=   1.00               qco=   0.    coul   

   7*** transit time parameters ***
      itf=   0.    amps         ptf=   0.    deg k         tf=   0.    secs   
       tr=   0.    secs         vtf=   0.                 xtf=   0.           

   8*** temperature compensation parameters ***
     tlev=   0.               tlevc=   0.                tre1=   0.    /deg   
     tre2=   0.    /deg2       trb1=   0.    /deg        trc1=   0.    /deg   
     trb2=   0.    /deg2       trm1=   0.    /deg         xtb=   0.           
     trm2=   0.    /deg2        xti=   3.00               cte=   0.    /deg   
      ctc=   0.    /deg         cts=   0.    /deg        trc2=   0.    /deg2  
     tref=  25.00   deg c       bex=   2.42              bexv=   1.90         

   9*** noise parameters ***
       kf=   0.                  af=   1.00         
 
      

 **diagnostic** dc convergence failure, 
 resetting dcon option to 1 and retrying

 **diagnostic** dc convergence successful
 you can increase the efficiency of the
 operating point calculation by setting dcon= 1
 in the .option statement
 ******  
 .option post                                                                   
  ******  dc transfer curves               tnom=  25.000 temp=  25.000          
 ******  

   *** source        0:ib               =    0.            ***


a


      volt       i(q1)
 (a       )    -200.0000p       0.          200.0000p     400.0000p    600.0000p
                      +             +             +             +             + 
   -3.0000    -5.395p-+------+------a------+------+------+------+------+------+-
   -2.9800    -5.356p +      +      a      +      +      +      +      +      + 
   -2.9600    -5.316p +      +      a      +      +      +      +      +      + 
   -2.9400    -5.277p +      +      a      +      +      +      +      +      + 
   -2.9200    -5.237p +      +      a      +      +      +      +      +      + 
   -2.9000    -5.198p +      +      a      +      +      +      +      +      + 
   -2.8800    -5.159p +      +      a      +      +      +      +      +      + 
   -2.8600    -5.119p +      +      a      +      +      +      +      +      + 
   -2.8400    -5.080p +      +      a      +      +      +      +      +      + 
   -2.8200    -5.040p +      +      a      +      +      +      +      +      + 
   -2.8000    -5.001p-+------+------a------+------+------+------+------+------+-
   -2.7800    -4.962p +      +      a      +      +      +      +      +      + 
   -2.7600    -4.922p +      +      a      +      +      +      +      +      + 
   -2.7400    -4.883p +      +      a      +      +      +      +      +      + 
   -2.7200    -4.844p +      +      a      +      +      +      +      +      + 
   -2.7000    -4.804p +      +      a      +      +      +      +      +      + 
   -2.6800    -4.765p +      +      a      +      +      +      +      +      + 
   -2.6600    -4.726p +      +      a      +      +      +      +      +      + 
   -2.6400    -4.686p +      +      a      +      +      +      +      +      + 
   -2.6200    -4.647p +      +      a      +      +      +      +      +      + 
   -2.6000    -4.608p-+------+------a------+------+------+------+------+------+-
   -2.5800    -4.568p +      +      a      +      +      +      +      +      + 
   -2.5600    -4.529p +      +      a      +      +      +      +      +      + 
   -2.5400    -4.490p +      +      a      +      +      +      +      +      + 
   -2.5200    -4.450p +      +      a      +      +      +      +      +      + 
   -2.5000    -4.411p +      +      a      +      +      +      +      +      + 
   -2.4800    -4.372p +      +      a      +      +      +      +      +      + 
   -2.4600    -4.333p +      +      a      +      +      +      +      +      + 
   -2.4400    -4.293p +      +      a      +      +      +      +      +      + 
   -2.4200    -4.254p +      +      a      +      +      +      +      +      + 
   -2.4000    -4.215p-+------+------a------+------+------+------+------+------+-
   -2.3800    -4.176p +      +      a      +      +      +      +      +      + 
   -2.3600    -4.136p +      +      a      +      +      +      +      +      + 
   -2.3400    -4.097p +      +      a      +      +      +      +      +      + 
   -2.3200    -4.058p +      +      a      +      +      +      +      +      + 
   -2.3000    -4.019p +      +      a      +      +      +      +      +      + 
   -2.2800    -3.979p +      +      a      +      +      +      +      +      + 
   -2.2600    -3.940p +      +      a      +      +      +      +      +      + 
   -2.2400    -3.901p +      +      a      +      +      +      +      +      + 
   -2.2200    -3.862p +      +      a      +      +      +      +      +      + 
   -2.2000    -3.823p-+------+------a------+------+------+------+------+------+-
   -2.1800    -3.783p +      +      a      +      +      +      +      +      + 
   -2.1600    -3.744p +      +      a      +      +      +      +      +      + 
   -2.1400    -3.705p +      +      a      +      +      +      +      +      + 
   -2.1200    -3.666p +      +      a      +      +      +      +      +      + 
   -2.1000    -3.627p +      +      a      +      +      +      +      +      + 
   -2.0800    -3.588p +      +      a      +      +      +      +      +      + 
   -2.0600    -3.549p +      +      a      +      +      +      +      +      + 
   -2.0400    -3.510p +      +      a      +      +      +      +      +      + 
   -2.0200    -3.470p +      +      a      +      +      +      +      +      + 
   -2.0000    -3.431p-+------+------a------+------+------+------+------+------+-
   -1.9800    -3.392p +      +      a      +      +      +      +      +      + 
   -1.9600    -3.353p +      +      a      +      +      +      +      +      + 
   -1.9400    -3.314p +      +      a      +      +      +      +      +      + 
   -1.9200    -3.275p +      +      a      +      +      +      +      +      + 
   -1.9000    -3.236p +      +      a      +      +      +      +      +      + 
   -1.8800    -3.197p +      +      a      +      +      +      +      +      + 
   -1.8600    -3.158p +      +      a      +      +      +      +      +      + 
   -1.8400    -3.119p +      +      a      +      +      +      +      +      + 
   -1.8200    -3.080p +      +      a      +      +      +      +      +      + 
   -1.8000    -3.041p-+------+------a------+------+------+------+------+------+-
   -1.7800    -3.002p +      +      a      +      +      +      +      +      + 
   -1.7600    -2.963p +      +      a      +      +      +      +      +      + 
   -1.7400    -2.924p +      +      a      +      +      +      +      +      + 
   -1.7200    -2.885p +      +      a      +      +      +      +      +      + 
   -1.7000    -2.847p +      +      a      +      +      +      +      +      + 
   -1.6800    -2.808p +      +      a      +      +      +      +      +      + 
   -1.6600    -2.769p +      +      a      +      +      +      +      +      + 
   -1.6400    -2.730p +      +      a      +      +      +      +      +      + 
   -1.6200    -2.691p +      +      a      +      +      +      +      +      + 
   -1.6000    -2.652p-+------+------a------+------+------+------+------+------+-
   -1.5800    -2.614p +      +      a      +      +      +      +      +      + 
   -1.5600    -2.575p +      +      a      +      +      +      +      +      + 
   -1.5400    -2.536p +      +      a      +      +      +      +      +      + 
   -1.5200    -2.497p +      +      a      +      +      +      +      +      + 
   -1.5000    -2.459p +      +      a      +      +      +      +      +      + 
   -1.4800    -2.420p +      +      a      +      +      +      +      +      + 
   -1.4600    -2.381p +      +      a      +      +      +      +      +      + 
   -1.4400    -2.343p +      +      a      +      +      +      +      +      + 
   -1.4200    -2.304p +      +      a      +      +      +      +      +      + 
   -1.4000    -2.265p-+------+------a------+------+------+------+------+------+-
   -1.3800    -2.227p +      +      a      +      +      +      +      +      + 
   -1.3600    -2.188p +      +      a      +      +      +      +      +      + 
   -1.3400    -2.150p +      +      a      +      +      +      +      +      + 
   -1.3200    -2.111p +      +      a      +      +      +      +      +      + 
   -1.3000    -2.073p +      +      a      +      +      +      +      +      + 
   -1.2800    -2.034p +      +      a      +      +      +      +      +      + 
   -1.2600    -1.996p +      +      a      +      +      +      +      +      + 
   -1.2400    -1.957p +      +      a      +      +      +      +      +      + 
   -1.2200    -1.919p +      +      a      +      +      +      +      +      + 
   -1.2000    -1.881p-+------+------a------+------+------+------+------+------+-
   -1.1800    -1.842p +      +      a      +      +      +      +      +      + 
   -1.1600    -1.804p +      +      a      +      +      +      +      +      + 
   -1.1400    -1.766p +      +      a      +      +      +      +      +      + 
   -1.1200    -1.728p +      +      a      +      +      +      +      +      + 
   -1.1000    -1.690p +      +      a      +      +      +      +      +      + 
   -1.0800    -1.652p +      +      a      +      +      +      +      +      + 
   -1.0600    -1.614p +      +      a      +      +      +      +      +      + 
   -1.0400    -1.576p +      +      a      +      +      +      +      +      + 
   -1.0200    -1.538p +      +      a      +      +      +      +      +      + 
   -1.0000    -1.500p-+------+------a------+------+------+------+------+------+-
 -980.0000m   -1.462p +      +      a      +      +      +      +      +      + 
 -960.0000m   -1.424p +      +      a      +      +      +      +      +      + 
 -940.0000m   -1.387p +      +      a      +      +      +      +      +      + 
 -920.0000m   -1.349p +      +      a      +      +      +      +      +      + 
 -900.0000m   -1.311p +      +      a      +      +      +      +      +      + 
 -880.0000m   -1.274p +      +      a      +      +      +      +      +      + 
 -860.0000m   -1.236p +      +      a      +      +      +      +      +      + 
 -840.0000m   -1.199p +      +      a      +      +      +      +      +      + 
 -820.0000m   -1.162p +      +      a      +      +      +      +      +      + 
 -800.0000m   -1.125p-+------+------a------+------+------+------+------+------+-
 -780.0000m   -1.088p +      +      a      +      +      +      +      +      + 
 -760.0000m   -1.051p +      +      a      +      +      +      +      +      + 
 -740.0000m   -1.014p +      +      a      +      +      +      +      +      + 
 -720.0000m -976.999f +      +      a      +      +      +      +      +      + 
 -700.0000m -940.394f +      +      a      +      +      +      +      +      + 
 -680.0000m -903.926f +      +      a      +      +      +      +      +      + 
 -660.0000m -867.607f +      +      a      +      +      +      +      +      + 
 -640.0000m -831.448f +      +      a      +      +      +      +      +      + 
 -620.0000m -795.462f +      +      a      +      +      +      +      +      + 
 -600.0000m -759.666f-+------+------a------+------+------+------+------+------+-
 -580.0000m -724.076f +      +      a      +      +      +      +      +      + 
 -560.0000m -688.712f +      +      a      +      +      +      +      +      + 
 -540.0000m -653.594f +      +      a      +      +      +      +      +      + 
 -520.0000m -618.748f +      +      a      +      +      +      +      +      + 
 -500.0000m -584.203f +      +      a      +      +      +      +      +      + 
 -480.0000m -549.991f +      +      a      +      +      +      +      +      + 
 -460.0000m -516.149f +      +      a      +      +      +      +      +      + 
 -440.0000m -482.721f +      +      a      +      +      +      +      +      + 
 -420.0000m -449.757f +      +      a      +      +      +      +      +      + 
 -400.0000m -417.315f-+------+------a------+------+------+------+------+------+-
 -380.0000m -385.463f +      +      a      +      +      +      +      +      + 
 -360.0000m -354.280f +      +      a      +      +      +      +      +      + 
 -340.0000m -323.857f +      +      a      +      +      +      +      +      + 
 -320.0000m -294.299f +      +      a      +      +      +      +      +      + 
 -300.0000m -265.725f +      +      a      +      +      +      +      +      + 
 -280.0000m -238.268f +      +      a      +      +      +      +      +      + 
 -260.0000m -212.073f +      +      a      +      +      +      +      +      + 
 -240.0000m -187.282f +      +      a      +      +      +      +      +      + 
 -220.0000m -164.035f +      +      a      +      +      +      +      +      + 
 -200.0000m -142.441f-+------+------a------+------+------+------+------+------+-
 -180.0000m -122.562f +      +      a      +      +      +      +      +      + 
 -160.0000m -104.387f +      +      a      +      +      +      +      +      + 
 -140.0000m  -87.828f +      +      a      +      +      +      +      +      + 
 -120.0000m  -72.720f +      +      a      +      +      +      +      +      + 
 -100.0000m  -58.845f +      +      a      +      +      +      +      +      + 
  -80.0000m  -45.961f +      +      a      +      +      +      +      +      + 
  -60.0000m  -33.833f +      +      a      +      +      +      +      +      + 
  -40.0000m  -22.248f +      +      a      +      +      +      +      +      + 
  -20.0000m  -11.023f +      +      a      +      +      +      +      +      + 
    0.       7.70e-22-+------+------a------+------+------+------+------+------+-
   20.0000m   10.964f +      +      a      +      +      +      +      +      + 
   40.0000m   22.008f +      +      a      +      +      +      +      +      + 
   60.0000m   33.290f +      +      a      +      +      +      +      +      + 
   80.0000m   45.004f +      +      a      +      +      +      +      +      + 
  100.0000m   57.412f +      +      a      +      +      +      +      +      + 
  120.0000m   70.883f +      +      a      +      +      +      +      +      + 
  140.0000m   85.944f +      +      a      +      +      +      +      +      + 
  160.0000m  103.367f +      +      a      +      +      +      +      +      + 
  180.0000m  124.278f +      +      a      +      +      +      +      +      + 
  200.0000m  150.320f-+------+------a------+------+------+------+------+------+-
  220.0000m  183.895f +      +      a      +      +      +      +      +      + 
  240.0000m  228.483f +      +      a      +      +      +      +      +      + 
  260.0000m  289.107f +      +      a      +      +      +      +      +      + 
  280.0000m  372.926f +      +      a      +      +      +      +      +      + 
  300.0000m  489.993f +      +      a      +      +      +      +      +      + 
  320.0000m  654.111f +      +      a      +      +      +      +      +      + 
  340.0000m  883.644f +      +      a      +      +      +      +      +      + 
  360.0000m    1.202p +      +      a      +      +      +      +      +      + 
  380.0000m    1.637p +      +      a      +      +      +      +      +      + 
  400.0000m    2.220p-+------+------a------+------+------+------+------+------+-
  420.0000m    2.981p +      +      a      +      +      +      +      +      + 
  440.0000m    3.947p +      +      a      +      +      +      +      +      + 
  460.0000m    5.136p +      +      a      +      +      +      +      +      + 
  480.0000m    6.555p +      +      a      +      +      +      +      +      + 
  500.0000m    8.201p +      +      +a     +      +      +      +      +      + 
  520.0000m   10.063p +      +      +a     +      +      +      +      +      + 
  540.0000m   12.125p +      +      +a     +      +      +      +      +      + 
  560.0000m   14.368p +      +      +a     +      +      +      +      +      + 
  580.0000m   16.771p +      +      +a     +      +      +      +      +      + 
  600.0000m   19.317p-+------+------+a-----+------+------+------+------+------+-
  620.0000m   21.988p +      +      + a    +      +      +      +      +      + 
  640.0000m   24.769p +      +      + a    +      +      +      +      +      + 
  660.0000m   27.646p +      +      + a    +      +      +      +      +      + 
  680.0000m   30.609p +      +      + a    +      +      +      +      +      + 
  700.0000m   33.647p +      +      + a    +      +      +      +      +      + 
  720.0000m   36.751p +      +      +  a   +      +      +      +      +      + 
  740.0000m   39.915p +      +      +  a   +      +      +      +      +      + 
  760.0000m   43.131p +      +      +  a   +      +      +      +      +      + 
  780.0000m   46.396p +      +      +  a   +      +      +      +      +      + 
  800.0000m   49.703p-+------+------+--a---+------+------+------+------+------+-
  820.0000m   53.048p +      +      +   a  +      +      +      +      +      + 
  840.0000m   56.429p +      +      +   a  +      +      +      +      +      + 
  860.0000m   59.841p +      +      +   a  +      +      +      +      +      + 
  880.0000m   63.283p +      +      +   a  +      +      +      +      +      + 
  900.0000m   66.751p +      +      +    a +      +      +      +      +      + 
  920.0000m   70.243p +      +      +    a +      +      +      +      +      + 
  940.0000m   73.758p +      +      +    a +      +      +      +      +      + 
  960.0000m   77.294p +      +      +    a +      +      +      +      +      + 
  980.0000m   80.849p +      +      +     a+      +      +      +      +      + 
    1.0000    84.422p-+------+------+-----a+------+------+------+------+------+-
    1.0200    88.012p +      +      +     a+      +      +      +      +      + 
    1.0400    91.617p +      +      +     a+      +      +      +      +      + 
    1.0600    95.237p +      +      +      a      +      +      +      +      + 
    1.0800    98.870p +      +      +      a      +      +      +      +      + 
    1.1000   102.516p +      +      +      a      +      +      +      +      + 
    1.1200   106.174p +      +      +      a      +      +      +      +      + 
    1.1400   109.843p +      +      +      +a     +      +      +      +      + 
    1.1600   113.523p +      +      +      +a     +      +      +      +      + 
    1.1800   117.212p +      +      +      +a     +      +      +      +      + 
    1.2000   120.912p-+------+------+------+a-----+------+------+------+------+-
    1.2200   124.620p +      +      +      + a    +      +      +      +      + 
    1.2400   128.336p +      +      +      + a    +      +      +      +      + 
    1.2600   132.061p +      +      +      + a    +      +      +      +      + 
    1.2800   135.793p +      +      +      +  a   +      +      +      +      + 
    1.3000   139.533p +      +      +      +  a   +      +      +      +      + 
    1.3200   143.279p +      +      +      +  a   +      +      +      +      + 
    1.3400   147.032p +      +      +      +  a   +      +      +      +      + 
    1.3600   150.792p +      +      +      +   a  +      +      +      +      + 
    1.3800   154.557p +      +      +      +   a  +      +      +      +      + 
    1.4000   158.328p-+------+------+------+---a--+------+------+------+------+-
    1.4200   162.105p +      +      +      +   a  +      +      +      +      + 
    1.4400   165.887p +      +      +      +    a +      +      +      +      + 
    1.4600   169.674p +      +      +      +    a +      +      +      +      + 
    1.4800   173.466p +      +      +      +    a +      +      +      +      + 
    1.5000   177.263p +      +      +      +    a +      +      +      +      + 
    1.5200   181.064p +      +      +      +     a+      +      +      +      + 
    1.5400   184.869p +      +      +      +     a+      +      +      +      + 
    1.5600   188.679p +      +      +      +     a+      +      +      +      + 
    1.5800   192.492p +      +      +      +     a+      +      +      +      + 
    1.6000   196.309p-+------+------+------+------a------+------+------+------+-
    1.6200   200.131p +      +      +      +      a      +      +      +      + 
    1.6400   203.955p +      +      +      +      a      +      +      +      + 
    1.6600   207.783p +      +      +      +      +a     +      +      +      + 
    1.6800   211.615p +      +      +      +      +a     +      +      +      + 
    1.7000   215.450p +      +      +      +      +a     +      +      +      + 
    1.7200   219.288p +      +      +      +      +a     +      +      +      + 
    1.7400   223.128p +      +      +      +      + a    +      +      +      + 
    1.7600   226.972p +      +      +      +      + a    +      +      +      + 
    1.7800   230.819p +      +      +      +      + a    +      +      +      + 
    1.8000   234.668p-+------+------+------+------+-a----+------+------+------+-
    1.8200   238.520p +      +      +      +      +  a   +      +      +      + 
    1.8400   242.375p +      +      +      +      +  a   +      +      +      + 
    1.8600   246.232p +      +      +      +      +  a   +      +      +      + 
    1.8800   250.092p +      +      +      +      +   a  +      +      +      + 
    1.9000   253.954p +      +      +      +      +   a  +      +      +      + 
    1.9200   257.818p +      +      +      +      +   a  +      +      +      + 
    1.9400   261.684p +      +      +      +      +   a  +      +      +      + 
    1.9600   265.553p +      +      +      +      +    a +      +      +      + 
    1.9800   269.424p +      +      +      +      +    a +      +      +      + 
    2.0000   273.296p-+------+------+------+------+----a-+------+------+------+-
    2.0200   277.171p +      +      +      +      +    a +      +      +      + 
    2.0400   281.048p +      +      +      +      +     a+      +      +      + 
    2.0600   284.927p +      +      +      +      +     a+      +      +      + 
    2.0800   288.807p +      +      +      +      +     a+      +      +      + 
    2.1000   292.689p +      +      +      +      +     a+      +      +      + 
    2.1200   296.573p +      +      +      +      +      a      +      +      + 
    2.1400   300.459p +      +      +      +      +      a      +      +      + 
    2.1600   304.347p +      +      +      +      +      a      +      +      + 
    2.1800   308.236p +      +      +      +      +      +a     +      +      + 
    2.2000   312.126p-+------+------+------+------+------+a-----+------+------+-
    2.2200   316.019p +      +      +      +      +      +a     +      +      + 
    2.2400   319.912p +      +      +      +      +      +a     +      +      + 
    2.2600   323.808p +      +      +      +      +      + a    +      +      + 
    2.2800   327.704p +      +      +      +      +      + a    +      +      + 
    2.3000   331.602p +      +      +      +      +      + a    +      +      + 
    2.3200   335.502p +      +      +      +      +      + a    +      +      + 
    2.3400   339.402p +      +      +      +      +      +  a   +      +      + 
    2.3600   343.305p +      +      +      +      +      +  a   +      +      + 
    2.3800   347.208p +      +      +      +      +      +  a   +      +      + 
    2.4000   351.113p-+------+------+------+------+------+---a--+------+------+-
    2.4200   355.019p +      +      +      +      +      +   a  +      +      + 
    2.4400   358.926p +      +      +      +      +      +   a  +      +      + 
    2.4600   362.834p +      +      +      +      +      +   a  +      +      + 
    2.4800   366.744p +      +      +      +      +      +    a +      +      + 
    2.5000   370.654p +      +      +      +      +      +    a +      +      + 
    2.5200   374.566p +      +      +      +      +      +    a +      +      + 
    2.5400   378.479p +      +      +      +      +      +    a +      +      + 
    2.5600   382.393p +      +      +      +      +      +     a+      +      + 
    2.5800   386.308p +      +      +      +      +      +     a+      +      + 
    2.6000   390.224p-+------+------+------+------+------+-----a+------+------+-
    2.6200   394.141p +      +      +      +      +      +      a      +      + 
    2.6400   398.059p +      +      +      +      +      +      a      +      + 
    2.6600   401.978p +      +      +      +      +      +      a      +      + 
    2.6800   405.898p +      +      +      +      +      +      a      +      + 
    2.7000   409.819p +      +      +      +      +      +      +a     +      + 
    2.7200   413.740p +      +      +      +      +      +      +a     +      + 
    2.7400   417.663p +      +      +      +      +      +      +a     +      + 
    2.7600   421.587p +      +      +      +      +      +      + a    +      + 
    2.7800   425.511p +      +      +      +      +      +      + a    +      + 
    2.8000   429.437p-+------+------+------+------+------+------+-a----+------+-
    2.8200   433.363p +      +      +      +      +      +      + a    +      + 
    2.8400   437.290p +      +      +      +      +      +      +  a   +      + 
    2.8600   441.217p +      +      +      +      +      +      +  a   +      + 
    2.8800   445.146p +      +      +      +      +      +      +  a   +      + 
    2.9000   449.075p +      +      +      +      +      +      +  a   +      + 
    2.9200   453.006p +      +      +      +      +      +      +   a  +      + 
    2.9400   456.937p +      +      +      +      +      +      +   a  +      + 
    2.9600   460.868p +      +      +      +      +      +      +   a  +      + 
    2.9800   464.801p +      +      +      +      +      +      +    a +      + 
    3.0000   468.734p-+------+------+------+------+------+------+----a-+------+-
                      +             +             +             +             + 

b


          ***** job concluded
 ******  
 .option post                                                                   
  ******  dc transfer curves               tnom=  25.000 temp=  25.000          
 ******  

   *** source        0:ib               =    5.0000u       ***


a


      volt       i(q1)
 (a       )    -500.0000u       0.          500.0000u       1.0000m      1.5000m
                      +             +             +             +             + 
   -3.0000   -10.000u-+------+------a------+------+------+------+------+------+-
   -2.9800   -10.000u +      +      a      +      +      +      +      +      + 
   -2.9600   -10.000u +      +      a      +      +      +      +      +      + 
   -2.9400   -10.000u +      +      a      +      +      +      +      +      + 
   -2.9200   -10.000u +      +      a      +      +      +      +      +      + 
   -2.9000   -10.000u +      +      a      +      +      +      +      +      + 
   -2.8800   -10.000u +      +      a      +      +      +      +      +      + 
   -2.8600   -10.000u +      +      a      +      +      +      +      +      + 
   -2.8400   -10.000u +      +      a      +      +      +      +      +      + 
   -2.8200   -10.000u +      +      a      +      +      +      +      +      + 
   -2.8000   -10.000u-+------+------a------+------+------+------+------+------+-
   -2.7800   -10.000u +      +      a      +      +      +      +      +      + 
   -2.7600   -10.000u +      +      a      +      +      +      +      +      + 
   -2.7400   -10.000u +      +      a      +      +      +      +      +      + 
   -2.7200   -10.000u +      +      a      +      +      +      +      +      + 
   -2.7000   -10.000u +      +      a      +      +      +      +      +      + 
   -2.6800   -10.000u +      +      a      +      +      +      +      +      + 
   -2.6600   -10.000u +      +      a      +      +      +      +      +      + 
   -2.6400   -10.000u +      +      a      +      +      +      +      +      + 
   -2.6200   -10.000u +      +      a      +      +      +      +      +      + 
   -2.6000   -10.000u-+------+------a------+------+------+------+------+------+-
   -2.5800   -10.000u +      +      a      +      +      +      +      +      + 
   -2.5600   -10.000u +      +      a      +      +      +      +      +      + 
   -2.5400   -10.000u +      +      a      +      +      +      +      +      + 
   -2.5200   -10.000u +      +      a      +      +      +      +      +      + 
   -2.5000   -10.000u +      +      a      +      +      +      +      +      + 
   -2.4800   -10.000u +      +      a      +      +      +      +      +      + 
   -2.4600   -10.000u +      +      a      +      +      +      +      +      + 
   -2.4400   -10.000u +      +      a      +      +      +      +      +      + 
   -2.4200   -10.000u +      +      a      +      +      +      +      +      + 
   -2.4000   -10.000u-+------+------a------+------+------+------+------+------+-
   -2.3800   -10.000u +      +      a      +      +      +      +      +      + 
   -2.3600   -10.000u +      +      a      +      +      +      +      +      + 
   -2.3400   -10.000u +      +      a      +      +      +      +      +      + 
   -2.3200   -10.000u +      +      a      +      +      +      +      +      + 
   -2.3000   -10.000u +      +      a      +      +      +      +      +      + 
   -2.2800   -10.000u +      +      a      +      +      +      +      +      + 
   -2.2600   -10.000u +      +      a      +      +      +      +      +      + 
   -2.2400   -10.000u +      +      a      +      +      +      +      +      + 
   -2.2200   -10.000u +      +      a      +      +      +      +      +      + 
   -2.2000   -10.000u-+------+------a------+------+------+------+------+------+-
   -2.1800   -10.000u +      +      a      +      +      +      +      +      + 
   -2.1600   -10.000u +      +      a      +      +      +      +      +      + 
   -2.1400   -10.000u +      +      a      +      +      +      +      +      + 
   -2.1200   -10.000u +      +      a      +      +      +      +      +      + 
   -2.1000   -10.000u +      +      a      +      +      +      +      +      + 
   -2.0800   -10.000u +      +      a      +      +      +      +      +      + 
   -2.0600   -10.000u +      +      a      +      +      +      +      +      + 
   -2.0400   -10.000u +      +      a      +      +      +      +      +      + 
   -2.0200   -10.000u +      +      a      +      +      +      +      +      + 
   -2.0000   -10.000u-+------+------a------+------+------+------+------+------+-
   -1.9800   -10.000u +      +      a      +      +      +      +      +      + 
   -1.9600   -10.000u +      +      a      +      +      +      +      +      + 
   -1.9400   -10.000u +      +      a      +      +      +      +      +      + 
   -1.9200   -10.000u +      +      a      +      +      +      +      +      + 
   -1.9000   -10.000u +      +      a      +      +      +      +      +      + 
   -1.8800   -10.000u +      +      a      +      +      +      +      +      + 
   -1.8600   -10.000u +      +      a      +      +      +      +      +      + 
   -1.8400   -10.000u +      +      a      +      +      +      +      +      + 
   -1.8200   -10.000u +      +      a      +      +      +      +      +      + 
   -1.8000   -10.000u-+------+------a------+------+------+------+------+------+-
   -1.7800   -10.000u +      +      a      +      +      +      +      +      + 
   -1.7600   -10.000u +      +      a      +      +      +      +      +      + 
   -1.7400   -10.000u +      +      a      +      +      +      +      +      + 
   -1.7200   -10.000u +      +      a      +      +      +      +      +      + 
   -1.7000   -10.000u +      +      a      +      +      +      +      +      + 
   -1.6800   -10.000u +      +      a      +      +      +      +      +      + 
   -1.6600   -10.000u +      +      a      +      +      +      +      +      + 
   -1.6400   -10.000u +      +      a      +      +      +      +      +      + 
   -1.6200   -10.000u +      +      a      +      +      +      +      +      + 
   -1.6000   -10.000u-+------+------a------+------+------+------+------+------+-
   -1.5800   -10.000u +      +      a      +      +      +      +      +      + 
   -1.5600   -10.000u +      +      a      +      +      +      +      +      + 
   -1.5400   -10.000u +      +      a      +      +      +      +      +      + 
   -1.5200   -10.000u +      +      a      +      +      +      +      +      + 
   -1.5000   -10.000u +      +      a      +      +      +      +      +      + 
   -1.4800   -10.000u +      +      a      +      +      +      +      +      + 
   -1.4600   -10.000u +      +      a      +      +      +      +      +      + 
   -1.4400   -10.000u +      +      a      +      +      +      +      +      + 
   -1.4200   -10.000u +      +      a      +      +      +      +      +      + 
   -1.4000   -10.000u-+------+------a------+------+------+------+------+------+-
   -1.3800   -10.000u +      +      a      +      +      +      +      +      + 
   -1.3600   -10.000u +      +      a      +      +      +      +      +      + 
   -1.3400   -10.000u +      +      a      +      +      +      +      +      + 
   -1.3200   -10.000u +      +      a      +      +      +      +      +      + 
   -1.3000   -10.000u +      +      a      +      +      +      +      +      + 
   -1.2800   -10.000u +      +      a      +      +      +      +      +      + 
   -1.2600   -10.000u +      +      a      +      +      +      +      +      + 
   -1.2400   -10.000u +      +      a      +      +      +      +      +      + 
   -1.2200   -10.000u +      +      a      +      +      +      +      +      + 
   -1.2000   -10.000u-+------+------a------+------+------+------+------+------+-
   -1.1800   -10.000u +      +      a      +      +      +      +      +      + 
   -1.1600   -10.000u +      +      a      +      +      +      +      +      + 
   -1.1400   -10.000u +      +      a      +      +      +      +      +      + 
   -1.1200   -10.000u +      +      a      +      +      +      +      +      + 
   -1.1000   -10.000u +      +      a      +      +      +      +      +      + 
   -1.0800   -10.000u +      +      a      +      +      +      +      +      + 
   -1.0600   -10.000u +      +      a      +      +      +      +      +      + 
   -1.0400   -10.000u +      +      a      +      +      +      +      +      + 
   -1.0200   -10.000u +      +      a      +      +      +      +      +      + 
   -1.0000   -10.000u-+------+------a------+------+------+------+------+------+-
 -980.0000m  -10.000u +      +      a      +      +      +      +      +      + 
 -960.0000m  -10.000u +      +      a      +      +      +      +      +      + 
 -940.0000m  -10.000u +      +      a      +      +      +      +      +      + 
 -920.0000m  -10.000u +      +      a      +      +      +      +      +      + 
 -900.0000m  -10.000u +      +      a      +      +      +      +      +      + 
 -880.0000m  -10.000u +      +      a      +      +      +      +      +      + 
 -860.0000m  -10.000u +      +      a      +      +      +      +      +      + 
 -840.0000m  -10.000u +      +      a      +      +      +      +      +      + 
 -820.0000m  -10.000u +      +      a      +      +      +      +      +      + 
 -800.0000m  -10.000u-+------+------a------+------+------+------+------+------+-
 -780.0000m  -10.000u +      +      a      +      +      +      +      +      + 
 -760.0000m  -10.000u +      +      a      +      +      +      +      +      + 
 -740.0000m  -10.000u +      +      a      +      +      +      +      +      + 
 -720.0000m  -10.000u +      +      a      +      +      +      +      +      + 
 -700.0000m  -10.000u +      +      a      +      +      +      +      +      + 
 -680.0000m  -10.000u +      +      a      +      +      +      +      +      + 
 -660.0000m  -10.000u +      +      a      +      +      +      +      +      + 
 -640.0000m  -10.000u +      +      a      +      +      +      +      +      + 
 -620.0000m  -10.000u +      +      a      +      +      +      +      +      + 
 -600.0000m  -10.000u-+------+------a------+------+------+------+------+------+-
 -580.0000m  -10.000u +      +      a      +      +      +      +      +      + 
 -560.0000m  -10.000u +      +      a      +      +      +      +      +      + 
 -540.0000m  -10.000u +      +      a      +      +      +      +      +      + 
 -520.0000m  -10.000u +      +      a      +      +      +      +      +      + 
 -500.0000m  -10.000u +      +      a      +      +      +      +      +      + 
 -480.0000m  -10.000u +      +      a      +      +      +      +      +      + 
 -460.0000m  -10.000u +      +      a      +      +      +      +      +      + 
 -440.0000m  -10.000u +      +      a      +      +      +      +      +      + 
 -420.0000m  -10.000u +      +      a      +      +      +      +      +      + 
 -400.0000m  -10.000u-+------+------a------+------+------+------+------+------+-
 -380.0000m  -10.000u +      +      a      +      +      +      +      +      + 
 -360.0000m  -10.000u +      +      a      +      +      +      +      +      + 
 -340.0000m  -10.000u +      +      a      +      +      +      +      +      + 
 -320.0000m  -10.000u +      +      a      +      +      +      +      +      + 
 -300.0000m  -10.000u +      +      a      +      +      +      +      +      + 
 -280.0000m  -10.000u +      +      a      +      +      +      +      +      + 
 -260.0000m  -10.000u +      +      a      +      +      +      +      +      + 
 -240.0000m  -10.000u +      +      a      +      +      +      +      +      + 
 -220.0000m   -9.999u +      +      a      +      +      +      +      +      + 
 -200.0000m   -9.998u-+------+------a------+------+------+------+------+------+-
 -180.0000m   -9.995u +      +      a      +      +      +      +      +      + 
 -160.0000m   -9.990u +      +      a      +      +      +      +      +      + 
 -140.0000m   -9.978u +      +      a      +      +      +      +      +      + 
 -120.0000m   -9.953u +      +      a      +      +      +      +      +      + 
 -100.0000m   -9.897u +      +      a      +      +      +      +      +      + 
  -80.0000m   -9.776u +      +      a      +      +      +      +      +      + 
  -60.0000m   -9.512u +      +      a      +      +      +      +      +      + 
  -40.0000m   -8.937u +      +      a      +      +      +      +      +      + 
  -20.0000m   -7.687u +      +      a      +      +      +      +      +      + 
    0.        -4.975u-+------+------a------+------+------+------+------+------+-
   20.0000m  880.951n +      +      a      +      +      +      +      +      + 
   40.0000m   13.403u +      +      a      +      +      +      +      +      + 
   60.0000m   39.619u +      +      +a     +      +      +      +      +      + 
   80.0000m   92.164u +      +      +  a   +      +      +      +      +      + 
  100.0000m  188.829u +      +      +    a +      +      +      +      +      + 
  120.0000m  341.541u +      +      +      +  a   +      +      +      +      + 
  140.0000m  533.026u +      +      +      +      +a     +      +      +      + 
  160.0000m  714.111u +      +      +      +      +     a+      +      +      + 
  180.0000m  845.016u +      +      +      +      +      +  a   +      +      + 
  200.0000m  922.404u-+------+------+------+------+------+----a-+------+------+-
  220.0000m  962.830u +      +      +      +      +      +     a+      +      + 
  240.0000m  982.588u +      +      +      +      +      +      a      +      + 
  260.0000m  991.931u +      +      +      +      +      +      a      +      + 
  280.0000m  996.279u +      +      +      +      +      +      a      +      + 
  300.0000m  998.288u +      +      +      +      +      +      a      +      + 
  320.0000m  999.213u +      +      +      +      +      +      a      +      + 
  340.0000m  999.639u +      +      +      +      +      +      a      +      + 
  360.0000m  999.834u +      +      +      +      +      +      a      +      + 
  380.0000m  999.924u +      +      +      +      +      +      a      +      + 
  400.0000m  999.965u-+------+------+------+------+------+------a------+------+-
  420.0000m  999.984u +      +      +      +      +      +      a      +      + 
  440.0000m  999.992u +      +      +      +      +      +      a      +      + 
  460.0000m  999.996u +      +      +      +      +      +      a      +      + 
  480.0000m  999.998u +      +      +      +      +      +      a      +      + 
  500.0000m  999.999u +      +      +      +      +      +      a      +      + 
  520.0000m  999.999u +      +      +      +      +      +      a      +      + 
  540.0000m    1.000m +      +      +      +      +      +      a      +      + 
  560.0000m    1.000m +      +      +      +      +      +      a      +      + 
  580.0000m    1.000m +      +      +      +      +      +      a      +      + 
  600.0000m    1.000m-+------+------+------+------+------+------a------+------+-
  620.0000m    1.000m +      +      +      +      +      +      a      +      + 
  640.0000m    1.000m +      +      +      +      +      +      a      +      + 
  660.0000m    1.000m +      +      +      +      +      +      a      +      + 
  680.0000m    1.000m +      +      +      +      +      +      a      +      + 
  700.0000m    1.000m +      +      +      +      +      +      a      +      + 
  720.0000m    1.000m +      +      +      +      +      +      a      +      + 
  740.0000m    1.000m +      +      +      +      +      +      a      +      + 
  760.0000m    1.000m +      +      +      +      +      +      a      +      + 
  780.0000m    1.000m +      +      +      +      +      +      a      +      + 
  800.0000m    1.000m-+------+------+------+------+------+------a------+------+-
  820.0000m    1.000m +      +      +      +      +      +      a      +      + 
  840.0000m    1.000m +      +      +      +      +      +      a      +      + 
  860.0000m    1.000m +      +      +      +      +      +      a      +      + 
  880.0000m    1.000m +      +      +      +      +      +      a      +      + 
  900.0000m    1.000m +      +      +      +      +      +      a      +      + 
  920.0000m    1.000m +      +      +      +      +      +      a      +      + 
  940.0000m    1.000m +      +      +      +      +      +      a      +      + 
  960.0000m    1.000m +      +      +      +      +      +      a      +      + 
  980.0000m    1.000m +      +      +      +      +      +      a      +      + 
    1.0000     1.000m-+------+------+------+------+------+------a------+------+-
    1.0200     1.000m +      +      +      +      +      +      a      +      + 
    1.0400     1.000m +      +      +      +      +      +      a      +      + 
    1.0600     1.000m +      +      +      +      +      +      a      +      + 
    1.0800     1.000m +      +      +      +      +      +      a      +      + 
    1.1000     1.000m +      +      +      +      +      +      a      +      + 
    1.1200     1.000m +      +      +      +      +      +      a      +      + 
    1.1400     1.000m +      +      +      +      +      +      a      +      + 
    1.1600     1.000m +      +      +      +      +      +      a      +      + 
    1.1800     1.000m +      +      +      +      +      +      a      +      + 
    1.2000     1.000m-+------+------+------+------+------+------a------+------+-
    1.2200     1.000m +      +      +      +      +      +      a      +      + 
    1.2400     1.000m +      +      +      +      +      +      a      +      + 
    1.2600     1.000m +      +      +      +      +      +      a      +      + 
    1.2800     1.000m +      +      +      +      +      +      a      +      + 
    1.3000     1.000m +      +      +      +      +      +      a      +      + 
    1.3200     1.000m +      +      +      +      +      +      a      +      + 
    1.3400     1.000m +      +      +      +      +      +      a      +      + 
    1.3600     1.000m +      +      +      +      +      +      a      +      + 
    1.3800     1.000m +      +      +      +      +      +      a      +      + 
    1.4000     1.000m-+------+------+------+------+------+------a------+------+-
    1.4200     1.000m +      +      +      +      +      +      a      +      + 
    1.4400     1.000m +      +      +      +      +      +      a      +      + 
    1.4600     1.000m +      +      +      +      +      +      a      +      + 
    1.4800     1.000m +      +      +      +      +      +      a      +      + 
    1.5000     1.000m +      +      +      +      +      +      a      +      + 
    1.5200     1.000m +      +      +      +      +      +      a      +      + 
    1.5400     1.000m +      +      +      +      +      +      a      +      + 
    1.5600     1.000m +      +      +      +      +      +      a      +      + 
    1.5800     1.000m +      +      +      +      +      +      a      +      + 
    1.6000     1.000m-+------+------+------+------+------+------a------+------+-
    1.6200     1.000m +      +      +      +      +      +      a      +      + 
    1.6400     1.000m +      +      +      +      +      +      a      +      + 
    1.6600     1.000m +      +      +      +      +      +      a      +      + 
    1.6800     1.000m +      +      +      +      +      +      a      +      + 
    1.7000     1.000m +      +      +      +      +      +      a      +      + 
    1.7200     1.000m +      +      +      +      +      +      a      +      + 
    1.7400     1.000m +      +      +      +      +      +      a      +      + 
    1.7600     1.000m +      +      +      +      +      +      a      +      + 
    1.7800     1.000m +      +      +      +      +      +      a      +      + 
    1.8000     1.000m-+------+------+------+------+------+------a------+------+-
    1.8200     1.000m +      +      +      +      +      +      a      +      + 
    1.8400     1.000m +      +      +      +      +      +      a      +      + 
    1.8600     1.000m +      +      +      +      +      +      a      +      + 
    1.8800     1.000m +      +      +      +      +      +      a      +      + 
    1.9000     1.000m +      +      +      +      +      +      a      +      + 
    1.9200     1.000m +      +      +      +      +      +      a      +      + 
    1.9400     1.000m +      +      +      +      +      +      a      +      + 
    1.9600     1.000m +      +      +      +      +      +      a      +      + 
    1.9800     1.000m +      +      +      +      +      +      a      +      + 
    2.0000     1.000m-+------+------+------+------+------+------a------+------+-
    2.0200     1.000m +      +      +      +      +      +      a      +      + 
    2.0400     1.000m +      +      +      +      +      +      a      +      + 
    2.0600     1.000m +      +      +      +      +      +      a      +      + 
    2.0800     1.000m +      +      +      +      +      +      a      +      + 
    2.1000     1.000m +      +      +      +      +      +      a      +      + 
    2.1200     1.000m +      +      +      +      +      +      a      +      + 
    2.1400     1.000m +      +      +      +      +      +      a      +      + 
    2.1600     1.000m +      +      +      +      +      +      a      +      + 
    2.1800     1.000m +      +      +      +      +      +      a      +      + 
    2.2000     1.000m-+------+------+------+------+------+------a------+------+-
    2.2200     1.000m +      +      +      +      +      +      a      +      + 
    2.2400     1.000m +      +      +      +      +      +      a      +      + 
    2.2600     1.000m +      +      +      +      +      +      a      +      + 
    2.2800     1.000m +      +      +      +      +      +      a      +      + 
    2.3000     1.000m +      +      +      +      +      +      a      +      + 
    2.3200     1.000m +      +      +      +      +      +      a      +      + 
    2.3400     1.000m +      +      +      +      +      +      a      +      + 
    2.3600     1.000m +      +      +      +      +      +      a      +      + 
    2.3800     1.000m +      +      +      +      +      +      a      +      + 
    2.4000     1.000m-+------+------+------+------+------+------a------+------+-
    2.4200     1.000m +      +      +      +      +      +      a      +      + 
    2.4400     1.000m +      +      +      +      +      +      a      +      + 
    2.4600     1.000m +      +      +      +      +      +      a      +      + 
    2.4800     1.000m +      +      +      +      +      +      a      +      + 
    2.5000     1.000m +      +      +      +      +      +      a      +      + 
    2.5200     1.000m +      +      +      +      +      +      a      +      + 
    2.5400     1.000m +      +      +      +      +      +      a      +      + 
    2.5600     1.000m +      +      +      +      +      +      a      +      + 
    2.5800     1.000m +      +      +      +      +      +      a      +      + 
    2.6000     1.000m-+------+------+------+------+------+------a------+------+-
    2.6200     1.000m +      +      +      +      +      +      a      +      + 
    2.6400     1.000m +      +      +      +      +      +      a      +      + 
    2.6600     1.000m +      +      +      +      +      +      a      +      + 
    2.6800     1.000m +      +      +      +      +      +      a      +      + 
    2.7000     1.000m +      +      +      +      +      +      a      +      + 
    2.7200     1.000m +      +      +      +      +      +      a      +      + 
    2.7400     1.000m +      +      +      +      +      +      a      +      + 
    2.7600     1.000m +      +      +      +      +      +      a      +      + 
    2.7800     1.000m +      +      +      +      +      +      a      +      + 
    2.8000     1.000m-+------+------+------+------+------+------a------+------+-
    2.8200     1.000m +      +      +      +      +      +      a      +      + 
    2.8400     1.000m +      +      +      +      +      +      a      +      + 
    2.8600     1.000m +      +      +      +      +      +      a      +      + 
    2.8800     1.000m +      +      +      +      +      +      a      +      + 
    2.9000     1.000m +      +      +      +      +      +      a      +      + 
    2.9200     1.000m +      +      +      +      +      +      a      +      + 
    2.9400     1.000m +      +      +      +      +      +      a      +      + 
    2.9600     1.000m +      +      +      +      +      +      a      +      + 
    2.9800     1.000m +      +      +      +      +      +      a      +      + 
    3.0000     1.000m-+------+------+------+------+------+------a------+------+-
                      +             +             +             +             + 

b


          ***** job concluded
 ******  
 .option post                                                                   
  ******  dc transfer curves               tnom=  25.000 temp=  25.000          
 ******  

   *** source        0:ib               =   10.0000u       ***


a


      volt       i(q1)
 (a       )      -1.0000m       0.            1.0000m       2.0000m      3.0000m
                      +             +             +             +             + 
   -3.0000   -20.000u-+------+------a------+------+------+------+------+------+-
   -2.9800   -20.000u +      +      a      +      +      +      +      +      + 
   -2.9600   -20.000u +      +      a      +      +      +      +      +      + 
   -2.9400   -20.000u +      +      a      +      +      +      +      +      + 
   -2.9200   -20.000u +      +      a      +      +      +      +      +      + 
   -2.9000   -20.000u +      +      a      +      +      +      +      +      + 
   -2.8800   -20.000u +      +      a      +      +      +      +      +      + 
   -2.8600   -20.000u +      +      a      +      +      +      +      +      + 
   -2.8400   -20.000u +      +      a      +      +      +      +      +      + 
   -2.8200   -20.000u +      +      a      +      +      +      +      +      + 
   -2.8000   -20.000u-+------+------a------+------+------+------+------+------+-
   -2.7800   -20.000u +      +      a      +      +      +      +      +      + 
   -2.7600   -20.000u +      +      a      +      +      +      +      +      + 
   -2.7400   -20.000u +      +      a      +      +      +      +      +      + 
   -2.7200   -20.000u +      +      a      +      +      +      +      +      + 
   -2.7000   -20.000u +      +      a      +      +      +      +      +      + 
   -2.6800   -20.000u +      +      a      +      +      +      +      +      + 
   -2.6600   -20.000u +      +      a      +      +      +      +      +      + 
   -2.6400   -20.000u +      +      a      +      +      +      +      +      + 
   -2.6200   -20.000u +      +      a      +      +      +      +      +      + 
   -2.6000   -20.000u-+------+------a------+------+------+------+------+------+-
   -2.5800   -20.000u +      +      a      +      +      +      +      +      + 
   -2.5600   -20.000u +      +      a      +      +      +      +      +      + 
   -2.5400   -20.000u +      +      a      +      +      +      +      +      + 
   -2.5200   -20.000u +      +      a      +      +      +      +      +      + 
   -2.5000   -20.000u +      +      a      +      +      +      +      +      + 
   -2.4800   -20.000u +      +      a      +      +      +      +      +      + 
   -2.4600   -20.000u +      +      a      +      +      +      +      +      + 
   -2.4400   -20.000u +      +      a      +      +      +      +      +      + 
   -2.4200   -20.000u +      +      a      +      +      +      +      +      + 
   -2.4000   -20.000u-+------+------a------+------+------+------+------+------+-
   -2.3800   -20.000u +      +      a      +      +      +      +      +      + 
   -2.3600   -20.000u +      +      a      +      +      +      +      +      + 
   -2.3400   -20.000u +      +      a      +      +      +      +      +      + 
   -2.3200   -20.000u +      +      a      +      +      +      +      +      + 
   -2.3000   -20.000u +      +      a      +      +      +      +      +      + 
   -2.2800   -20.000u +      +      a      +      +      +      +      +      + 
   -2.2600   -20.000u +      +      a      +      +      +      +      +      + 
   -2.2400   -20.000u +      +      a      +      +      +      +      +      + 
   -2.2200   -20.000u +      +      a      +      +      +      +      +      + 
   -2.2000   -20.000u-+------+------a------+------+------+------+------+------+-
   -2.1800   -20.000u +      +      a      +      +      +      +      +      + 
   -2.1600   -20.000u +      +      a      +      +      +      +      +      + 
   -2.1400   -20.000u +      +      a      +      +      +      +      +      + 
   -2.1200   -20.000u +      +      a      +      +      +      +      +      + 
   -2.1000   -20.000u +      +      a      +      +      +      +      +      + 
   -2.0800   -20.000u +      +      a      +      +      +      +      +      + 
   -2.0600   -20.000u +      +      a      +      +      +      +      +      + 
   -2.0400   -20.000u +      +      a      +      +      +      +      +      + 
   -2.0200   -20.000u +      +      a      +      +      +      +      +      + 
   -2.0000   -20.000u-+------+------a------+------+------+------+------+------+-
   -1.9800   -20.000u +      +      a      +      +      +      +      +      + 
   -1.9600   -20.000u +      +      a      +      +      +      +      +      + 
   -1.9400   -20.000u +      +      a      +      +      +      +      +      + 
   -1.9200   -20.000u +      +      a      +      +      +      +      +      + 
   -1.9000   -20.000u +      +      a      +      +      +      +      +      + 
   -1.8800   -20.000u +      +      a      +      +      +      +      +      + 
   -1.8600   -20.000u +      +      a      +      +      +      +      +      + 
   -1.8400   -20.000u +      +      a      +      +      +      +      +      + 
   -1.8200   -20.000u +      +      a      +      +      +      +      +      + 
   -1.8000   -20.000u-+------+------a------+------+------+------+------+------+-
   -1.7800   -20.000u +      +      a      +      +      +      +      +      + 
   -1.7600   -20.000u +      +      a      +      +      +      +      +      + 
   -1.7400   -20.000u +      +      a      +      +      +      +      +      + 
   -1.7200   -20.000u +      +      a      +      +      +      +      +      + 
   -1.7000   -20.000u +      +      a      +      +      +      +      +      + 
   -1.6800   -20.000u +      +      a      +      +      +      +      +      + 
   -1.6600   -20.000u +      +      a      +      +      +      +      +      + 
   -1.6400   -20.000u +      +      a      +      +      +      +      +      + 
   -1.6200   -20.000u +      +      a      +      +      +      +      +      + 
   -1.6000   -20.000u-+------+------a------+------+------+------+------+------+-
   -1.5800   -20.000u +      +      a      +      +      +      +      +      + 
   -1.5600   -20.000u +      +      a      +      +      +      +      +      + 
   -1.5400   -20.000u +      +      a      +      +      +      +      +      + 
   -1.5200   -20.000u +      +      a      +      +      +      +      +      + 
   -1.5000   -20.000u +      +      a      +      +      +      +      +      + 
   -1.4800   -20.000u +      +      a      +      +      +      +      +      + 
   -1.4600   -20.000u +      +      a      +      +      +      +      +      + 
   -1.4400   -20.000u +      +      a      +      +      +      +      +      + 
   -1.4200   -20.000u +      +      a      +      +      +      +      +      + 
   -1.4000   -20.000u-+------+------a------+------+------+------+------+------+-
   -1.3800   -20.000u +      +      a      +      +      +      +      +      + 
   -1.3600   -20.000u +      +      a      +      +      +      +      +      + 
   -1.3400   -20.000u +      +      a      +      +      +      +      +      + 
   -1.3200   -20.000u +      +      a      +      +      +      +      +      + 
   -1.3000   -20.000u +      +      a      +      +      +      +      +      + 
   -1.2800   -20.000u +      +      a      +      +      +      +      +      + 
   -1.2600   -20.000u +      +      a      +      +      +      +      +      + 
   -1.2400   -20.000u +      +      a      +      +      +      +      +      + 
   -1.2200   -20.000u +      +      a      +      +      +      +      +      + 
   -1.2000   -20.000u-+------+------a------+------+------+------+------+------+-
   -1.1800   -20.000u +      +      a      +      +      +      +      +      + 
   -1.1600   -20.000u +      +      a      +      +      +      +      +      + 
   -1.1400   -20.000u +      +      a      +      +      +      +      +      + 
   -1.1200   -20.000u +      +      a      +      +      +      +      +      + 
   -1.1000   -20.000u +      +      a      +      +      +      +      +      + 
   -1.0800   -20.000u +      +      a      +      +      +      +      +      + 
   -1.0600   -20.000u +      +      a      +      +      +      +      +      + 
   -1.0400   -20.000u +      +      a      +      +      +      +      +      + 
   -1.0200   -20.000u +      +      a      +      +      +      +      +      + 
   -1.0000   -20.000u-+------+------a------+------+------+------+------+------+-
 -980.0000m  -20.000u +      +      a      +      +      +      +      +      + 
 -960.0000m  -20.000u +      +      a      +      +      +      +      +      + 
 -940.0000m  -20.000u +      +      a      +      +      +      +      +      + 
 -920.0000m  -20.000u +      +      a      +      +      +      +      +      + 
 -900.0000m  -20.000u +      +      a      +      +      +      +      +      + 
 -880.0000m  -20.000u +      +      a      +      +      +      +      +      + 
 -860.0000m  -20.000u +      +      a      +      +      +      +      +      + 
 -840.0000m  -20.000u +      +      a      +      +      +      +      +      + 
 -820.0000m  -20.000u +      +      a      +      +      +      +      +      + 
 -800.0000m  -20.000u-+------+------a------+------+------+------+------+------+-
 -780.0000m  -20.000u +      +      a      +      +      +      +      +      + 
 -760.0000m  -20.000u +      +      a      +      +      +      +      +      + 
 -740.0000m  -20.000u +      +      a      +      +      +      +      +      + 
 -720.0000m  -20.000u +      +      a      +      +      +      +      +      + 
 -700.0000m  -20.000u +      +      a      +      +      +      +      +      + 
 -680.0000m  -20.000u +      +      a      +      +      +      +      +      + 
 -660.0000m  -20.000u +      +      a      +      +      +      +      +      + 
 -640.0000m  -20.000u +      +      a      +      +      +      +      +      + 
 -620.0000m  -20.000u +      +      a      +      +      +      +      +      + 
 -600.0000m  -20.000u-+------+------a------+------+------+------+------+------+-
 -580.0000m  -20.000u +      +      a      +      +      +      +      +      + 
 -560.0000m  -20.000u +      +      a      +      +      +      +      +      + 
 -540.0000m  -20.000u +      +      a      +      +      +      +      +      + 
 -520.0000m  -20.000u +      +      a      +      +      +      +      +      + 
 -500.0000m  -20.000u +      +      a      +      +      +      +      +      + 
 -480.0000m  -20.000u +      +      a      +      +      +      +      +      + 
 -460.0000m  -20.000u +      +      a      +      +      +      +      +      + 
 -440.0000m  -20.000u +      +      a      +      +      +      +      +      + 
 -420.0000m  -20.000u +      +      a      +      +      +      +      +      + 
 -400.0000m  -20.000u-+------+------a------+------+------+------+------+------+-
 -380.0000m  -20.000u +      +      a      +      +      +      +      +      + 
 -360.0000m  -20.000u +      +      a      +      +      +      +      +      + 
 -340.0000m  -20.000u +      +      a      +      +      +      +      +      + 
 -320.0000m  -20.000u +      +      a      +      +      +      +      +      + 
 -300.0000m  -20.000u +      +      a      +      +      +      +      +      + 
 -280.0000m  -20.000u +      +      a      +      +      +      +      +      + 
 -260.0000m  -20.000u +      +      a      +      +      +      +      +      + 
 -240.0000m  -19.999u +      +      a      +      +      +      +      +      + 
 -220.0000m  -19.998u +      +      a      +      +      +      +      +      + 
 -200.0000m  -19.996u-+------+------a------+------+------+------+------+------+-
 -180.0000m  -19.991u +      +      a      +      +      +      +      +      + 
 -160.0000m  -19.980u +      +      a      +      +      +      +      +      + 
 -140.0000m  -19.957u +      +      a      +      +      +      +      +      + 
 -120.0000m  -19.905u +      +      a      +      +      +      +      +      + 
 -100.0000m  -19.794u +      +      a      +      +      +      +      +      + 
  -80.0000m  -19.551u +      +      a      +      +      +      +      +      + 
  -60.0000m  -19.023u +      +      a      +      +      +      +      +      + 
  -40.0000m  -17.873u +      +      a      +      +      +      +      +      + 
  -20.0000m  -15.374u +      +      a      +      +      +      +      +      + 
    0.        -9.950u-+------+------a------+------+------+------+------+------+-
   20.0000m    1.762u +      +      a      +      +      +      +      +      + 
   40.0000m   26.806u +      +      a      +      +      +      +      +      + 
   60.0000m   79.239u +      +      +a     +      +      +      +      +      + 
   80.0000m  184.327u +      +      +  a   +      +      +      +      +      + 
  100.0000m  377.659u +      +      +    a +      +      +      +      +      + 
  120.0000m  683.083u +      +      +      +  a   +      +      +      +      + 
  140.0000m    1.066m +      +      +      +      +a     +      +      +      + 
  160.0000m    1.428m +      +      +      +      +     a+      +      +      + 
  180.0000m    1.690m +      +      +      +      +      +  a   +      +      + 
  200.0000m    1.845m-+------+------+------+------+------+----a-+------+------+-
  220.0000m    1.926m +      +      +      +      +      +     a+      +      + 
  240.0000m    1.965m +      +      +      +      +      +      a      +      + 
  260.0000m    1.984m +      +      +      +      +      +      a      +      + 
  280.0000m    1.993m +      +      +      +      +      +      a      +      + 
  300.0000m    1.997m +      +      +      +      +      +      a      +      + 
  320.0000m    1.998m +      +      +      +      +      +      a      +      + 
  340.0000m    1.999m +      +      +      +      +      +      a      +      + 
  360.0000m    2.000m +      +      +      +      +      +      a      +      + 
  380.0000m    2.000m +      +      +      +      +      +      a      +      + 
  400.0000m    2.000m-+------+------+------+------+------+------a------+------+-
  420.0000m    2.000m +      +      +      +      +      +      a      +      + 
  440.0000m    2.000m +      +      +      +      +      +      a      +      + 
  460.0000m    2.000m +      +      +      +      +      +      a      +      + 
  480.0000m    2.000m +      +      +      +      +      +      a      +      + 
  500.0000m    2.000m +      +      +      +      +      +      a      +      + 
  520.0000m    2.000m +      +      +      +      +      +      a      +      + 
  540.0000m    2.000m +      +      +      +      +      +      a      +      + 
  560.0000m    2.000m +      +      +      +      +      +      a      +      + 
  580.0000m    2.000m +      +      +      +      +      +      a      +      + 
  600.0000m    2.000m-+------+------+------+------+------+------a------+------+-
  620.0000m    2.000m +      +      +      +      +      +      a      +      + 
  640.0000m    2.000m +      +      +      +      +      +      a      +      + 
  660.0000m    2.000m +      +      +      +      +      +      a      +      + 
  680.0000m    2.000m +      +      +      +      +      +      a      +      + 
  700.0000m    2.000m +      +      +      +      +      +      a      +      + 
  720.0000m    2.000m +      +      +      +      +      +      a      +      + 
  740.0000m    2.000m +      +      +      +      +      +      a      +      + 
  760.0000m    2.000m +      +      +      +      +      +      a      +      + 
  780.0000m    2.000m +      +      +      +      +      +      a      +      + 
  800.0000m    2.000m-+------+------+------+------+------+------a------+------+-
  820.0000m    2.000m +      +      +      +      +      +      a      +      + 
  840.0000m    2.000m +      +      +      +      +      +      a      +      + 
  860.0000m    2.000m +      +      +      +      +      +      a      +      + 
  880.0000m    2.000m +      +      +      +      +      +      a      +      + 
  900.0000m    2.000m +      +      +      +      +      +      a      +      + 
  920.0000m    2.000m +      +      +      +      +      +      a      +      + 
  940.0000m    2.000m +      +      +      +      +      +      a      +      + 
  960.0000m    2.000m +      +      +      +      +      +      a      +      + 
  980.0000m    2.000m +      +      +      +      +      +      a      +      + 
    1.0000     2.000m-+------+------+------+------+------+------a------+------+-
    1.0200     2.000m +      +      +      +      +      +      a      +      + 
    1.0400     2.000m +      +      +      +      +      +      a      +      + 
    1.0600     2.000m +      +      +      +      +      +      a      +      + 
    1.0800     2.000m +      +      +      +      +      +      a      +      + 
    1.1000     2.000m +      +      +      +      +      +      a      +      + 
    1.1200     2.000m +      +      +      +      +      +      a      +      + 
    1.1400     2.000m +      +      +      +      +      +      a      +      + 
    1.1600     2.000m +      +      +      +      +      +      a      +      + 
    1.1800     2.000m +      +      +      +      +      +      a      +      + 
    1.2000     2.000m-+------+------+------+------+------+------a------+------+-
    1.2200     2.000m +      +      +      +      +      +      a      +      + 
    1.2400     2.000m +      +      +      +      +      +      a      +      + 
    1.2600     2.000m +      +      +      +      +      +      a      +      + 
    1.2800     2.000m +      +      +      +      +      +      a      +      + 
    1.3000     2.000m +      +      +      +      +      +      a      +      + 
    1.3200     2.000m +      +      +      +      +      +      a      +      + 
    1.3400     2.000m +      +      +      +      +      +      a      +      + 
    1.3600     2.000m +      +      +      +      +      +      a      +      + 
    1.3800     2.000m +      +      +      +      +      +      a      +      + 
    1.4000     2.000m-+------+------+------+------+------+------a------+------+-
    1.4200     2.000m +      +      +      +      +      +      a      +      + 
    1.4400     2.000m +      +      +      +      +      +      a      +      + 
    1.4600     2.000m +      +      +      +      +      +      a      +      + 
    1.4800     2.000m +      +      +      +      +      +      a      +      + 
    1.5000     2.000m +      +      +      +      +      +      a      +      + 
    1.5200     2.000m +      +      +      +      +      +      a      +      + 
    1.5400     2.000m +      +      +      +      +      +      a      +      + 
    1.5600     2.000m +      +      +      +      +      +      a      +      + 
    1.5800     2.000m +      +      +      +      +      +      a      +      + 
    1.6000     2.000m-+------+------+------+------+------+------a------+------+-
    1.6200     2.000m +      +      +      +      +      +      a      +      + 
    1.6400     2.000m +      +      +      +      +      +      a      +      + 
    1.6600     2.000m +      +      +      +      +      +      a      +      + 
    1.6800     2.000m +      +      +      +      +      +      a      +      + 
    1.7000     2.000m +      +      +      +      +      +      a      +      + 
    1.7200     2.000m +      +      +      +      +      +      a      +      + 
    1.7400     2.000m +      +      +      +      +      +      a      +      + 
    1.7600     2.000m +      +      +      +      +      +      a      +      + 
    1.7800     2.000m +      +      +      +      +      +      a      +      + 
    1.8000     2.000m-+------+------+------+------+------+------a------+------+-
    1.8200     2.000m +      +      +      +      +      +      a      +      + 
    1.8400     2.000m +      +      +      +      +      +      a      +      + 
    1.8600     2.000m +      +      +      +      +      +      a      +      + 
    1.8800     2.000m +      +      +      +      +      +      a      +      + 
    1.9000     2.000m +      +      +      +      +      +      a      +      + 
    1.9200     2.000m +      +      +      +      +      +      a      +      + 
    1.9400     2.000m +      +      +      +      +      +      a      +      + 
    1.9600     2.000m +      +      +      +      +      +      a      +      + 
    1.9800     2.000m +      +      +      +      +      +      a      +      + 
    2.0000     2.000m-+------+------+------+------+------+------a------+------+-
    2.0200     2.000m +      +      +      +      +      +      a      +      + 
    2.0400     2.000m +      +      +      +      +      +      a      +      + 
    2.0600     2.000m +      +      +      +      +      +      a      +      + 
    2.0800     2.000m +      +      +      +      +      +      a      +      + 
    2.1000     2.000m +      +      +      +      +      +      a      +      + 
    2.1200     2.000m +      +      +      +      +      +      a      +      + 
    2.1400     2.000m +      +      +      +      +      +      a      +      + 
    2.1600     2.000m +      +      +      +      +      +      a      +      + 
    2.1800     2.000m +      +      +      +      +      +      a      +      + 
    2.2000     2.000m-+------+------+------+------+------+------a------+------+-
    2.2200     2.000m +      +      +      +      +      +      a      +      + 
    2.2400     2.000m +      +      +      +      +      +      a      +      + 
    2.2600     2.000m +      +      +      +      +      +      a      +      + 
    2.2800     2.000m +      +      +      +      +      +      a      +      + 
    2.3000     2.000m +      +      +      +      +      +      a      +      + 
    2.3200     2.000m +      +      +      +      +      +      a      +      + 
    2.3400     2.000m +      +      +      +      +      +      a      +      + 
    2.3600     2.000m +      +      +      +      +      +      a      +      + 
    2.3800     2.000m +      +      +      +      +      +      a      +      + 
    2.4000     2.000m-+------+------+------+------+------+------a------+------+-
    2.4200     2.000m +      +      +      +      +      +      a      +      + 
    2.4400     2.000m +      +      +      +      +      +      a      +      + 
    2.4600     2.000m +      +      +      +      +      +      a      +      + 
    2.4800     2.000m +      +      +      +      +      +      a      +      + 
    2.5000     2.000m +      +      +      +      +      +      a      +      + 
    2.5200     2.000m +      +      +      +      +      +      a      +      + 
    2.5400     2.000m +      +      +      +      +      +      a      +      + 
    2.5600     2.000m +      +      +      +      +      +      a      +      + 
    2.5800     2.000m +      +      +      +      +      +      a      +      + 
    2.6000     2.000m-+------+------+------+------+------+------a------+------+-
    2.6200     2.000m +      +      +      +      +      +      a      +      + 
    2.6400     2.000m +      +      +      +      +      +      a      +      + 
    2.6600     2.000m +      +      +      +      +      +      a      +      + 
    2.6800     2.000m +      +      +      +      +      +      a      +      + 
    2.7000     2.000m +      +      +      +      +      +      a      +      + 
    2.7200     2.000m +      +      +      +      +      +      a      +      + 
    2.7400     2.000m +      +      +      +      +      +      a      +      + 
    2.7600     2.000m +      +      +      +      +      +      a      +      + 
    2.7800     2.000m +      +      +      +      +      +      a      +      + 
    2.8000     2.000m-+------+------+------+------+------+------a------+------+-
    2.8200     2.000m +      +      +      +      +      +      a      +      + 
    2.8400     2.000m +      +      +      +      +      +      a      +      + 
    2.8600     2.000m +      +      +      +      +      +      a      +      + 
    2.8800     2.000m +      +      +      +      +      +      a      +      + 
    2.9000     2.000m +      +      +      +      +      +      a      +      + 
    2.9200     2.000m +      +      +      +      +      +      a      +      + 
    2.9400     2.000m +      +      +      +      +      +      a      +      + 
    2.9600     2.000m +      +      +      +      +      +      a      +      + 
    2.9800     2.000m +      +      +      +      +      +      a      +      + 
    3.0000     2.000m-+------+------+------+------+------+------a------+------+-
                      +             +             +             +             + 

b


          ***** job concluded
 ******  
 .option post                                                                   
  ******  dc transfer curves               tnom=  25.000 temp=  25.000          
 ******  

   *** source        0:ib               =   15.0000u       ***


a


      volt       i(q1)
 (a       )      -2.0000m       0.            2.0000m       4.0000m      6.0000m
                      +             +             +             +             + 
   -3.0000   -30.000u-+------+------a------+------+------+------+------+------+-
   -2.9800   -30.000u +      +      a      +      +      +      +      +      + 
   -2.9600   -30.000u +      +      a      +      +      +      +      +      + 
   -2.9400   -30.000u +      +      a      +      +      +      +      +      + 
   -2.9200   -30.000u +      +      a      +      +      +      +      +      + 
   -2.9000   -30.000u +      +      a      +      +      +      +      +      + 
   -2.8800   -30.000u +      +      a      +      +      +      +      +      + 
   -2.8600   -30.000u +      +      a      +      +      +      +      +      + 
   -2.8400   -30.000u +      +      a      +      +      +      +      +      + 
[...]
   -1.6200   -50.000u +      +      a      +      +      +      +      +      + 
   -1.6000   -50.000u-+------+------a------+------+------+------+------+------+-
   -1.5800   -50.000u +      +      a      +      +      +      +      +      + 
   -1.5600   -50.000u +      +      a      +      +      +      +      +      + 
   -1.5400   -50.000u +      +      a      +      +      +      +      +      + 
   -1.5200   -50.000u +      +      a      +      +      +      +      +      + 
   -1.5000   -50.000u +      +      a      +      +      +      +      +      + 
   -1.4800   -50.000u +      +      a      +      +      +      +      +      + 
   -1.4600   -50.000u +      +      a      +      +      +      +      +      + 
   -1.4400   -50.000u +      +      a      +      +      +      +      +      + 
   -1.4200   -50.000u +      +      a      +      +      +      +      +      + 
   -1.4000   -50.000u-+------+------a------+------+------+------+------+------+-
   -1.3800   -50.000u +      +      a      +      +      +      +      +      + 
   -1.3600   -50.000u +      +      a      +      +      +      +      +      + 
   -1.3400   -50.000u +      +      a      +      +      +      +      +      + 
   -1.3200   -50.000u +      +      a      +      +      +      +      +      + 
   -1.3000   -50.000u +      +      a      +      +      +      +      +      + 
   -1.2800   -50.000u +      +      a      +      +      +      +      +      + 
   -1.2600   -50.000u +      +      a      +      +      +      +      +      + 
   -1.2400   -50.000u +      +      a      +      +      +      +      +      + 
   -1.2200   -50.000u +      +      a      +      +      +      +      +      + 
   -1.2000   -50.000u-+------+------a------+------+------+------+------+------+-
   -1.1800   -50.000u +      +      a      +      +      +      +      +      + 
   -1.1600   -50.000u +      +      a      +      +      +      +      +      + 
   -1.1400   -50.000u +      +      a      +      +      +      +      +      + 
   -1.1200   -50.000u +      +      a      +      +      +      +      +      + 
   -1.1000   -50.000u +      +      a      +      +      +      +      +      + 
   -1.0800   -50.000u +      +      a      +      +      +      +      +      + 
   -1.0600   -50.000u +      +      a      +      +      +      +      +      + 
   -1.0400   -50.000u +      +      a      +      +      +      +      +      + 
   -1.0200   -50.000u +      +      a      +      +      +      +      +      + 
   -1.0000   -50.000u-+------+------a------+------+------+------+------+------+-
 -980.0000m  -50.000u +      +      a      +      +      +      +      +      + 
 -960.0000m  -50.000u +      +      a      +      +      +      +      +      + 
 -940.0000m  -50.000u +      +      a      +      +      +      +      +      + 
 -920.0000m  -50.000u +      +      a      +      +      +      +      +      + 
 -900.0000m  -50.000u +      +      a      +      +      +      +      +      + 
 -880.0000m  -50.000u +      +      a      +      +      +      +      +      + 
 -860.0000m  -50.000u +      +      a      +      +      +      +      +      + 
 -840.0000m  -50.000u +      +      a      +      +      +      +      +      + 
 -820.0000m  -50.000u +      +      a      +      +      +      +      +      + 
 -800.0000m  -50.000u-+------+------a------+------+------+------+------+------+-
 -780.0000m  -50.000u +      +      a      +      +      +      +      +      + 
 -760.0000m  -50.000u +      +      a      +      +      +      +      +      + 
 -740.0000m  -50.000u +      +      a      +      +      +      +      +      + 
 -720.0000m  -50.000u +      +      a      +      +      +      +      +      + 
 -700.0000m  -50.000u +      +      a      +      +      +      +      +      + 
 -680.0000m  -50.000u +      +      a      +      +      +      +      +      + 
 -660.0000m  -50.000u +      +      a      +      +      +      +      +      + 
 -640.0000m  -50.000u +      +      a      +      +      +      +      +      + 
 -620.0000m  -50.000u +      +      a      +      +      +      +      +      + 
 -600.0000m  -50.000u-+------+------a------+------+------+------+------+------+-
 -580.0000m  -50.000u +      +      a      +      +      +      +      +      + 
 -560.0000m  -50.000u +      +      a      +      +      +      +      +      + 
 -540.0000m  -50.000u +      +      a      +      +      +      +      +      + 
 -520.0000m  -50.000u +      +      a      +      +      +      +      +      + 
 -500.0000m  -50.000u +      +      a      +      +      +      +      +      + 
 -480.0000m  -50.000u +      +      a      +      +      +      +      +      + 
 -460.0000m  -50.000u +      +      a      +      +      +      +      +      + 
 -440.0000m  -50.000u +      +      a      +      +      +      +      +      + 
 -420.0000m  -50.000u +      +      a      +      +      +      +      +      + 
 -400.0000m  -50.000u-+------+------a------+------+------+------+------+------+-
 -380.0000m  -50.000u +      +      a      +      +      +      +      +      + 
 -360.0000m  -50.000u +      +      a      +      +      +      +      +      + 
 -340.0000m  -50.000u +      +      a      +      +      +      +      +      + 
 -320.0000m  -50.000u +      +      a      +      +      +      +      +      + 
 -300.0000m  -50.000u +      +      a      +      +      +      +      +      + 
 -280.0000m  -50.000u +      +      a      +      +      +      +      +      + 
 -260.0000m  -49.999u +      +      a      +      +      +      +      +      + 
 -240.0000m  -49.998u +      +      a      +      +      +      +      +      + 
 -220.0000m  -49.995u +      +      a      +      +      +      +      +      + 
 -200.0000m  -49.989u-+------+------a------+------+------+------+------+------+-
 -180.0000m  -49.977u +      +      a      +      +      +      +      +      + 
 -160.0000m  -49.950u +      +      a      +      +      +      +      +      + 
 -140.0000m  -49.891u +      +      a      +      +      +      +      +      + 
 -120.0000m  -49.764u +      +      a      +      +      +      +      +      + 
 -100.0000m  -49.485u +      +      a      +      +      +      +      +      + 
  -80.0000m  -48.878u +      +      a      +      +      +      +      +      + 
  -60.0000m  -47.558u +      +      a      +      +      +      +      +      + 
  -40.0000m  -44.683u +      +      a      +      +      +      +      +      + 
  -20.0000m  -38.434u +      +      a      +      +      +      +      +      + 
    0.       -24.876u-+------+------a------+------+------+------+------+------+-
   20.0000m    4.405u +      +      a      +      +      +      +      +      + 
   40.0000m   67.014u +      +      a      +      +      +      +      +      + 
   60.0000m  198.097u +      +      +a     +      +      +      +      +      + 
   80.0000m  460.818u +      +      +  a   +      +      +      +      +      + 
  100.0000m  944.147u +      +      +      a      +      +      +      +      + 
  120.0000m    1.708m +      +      +      +    a +      +      +      +      + 
  140.0000m    2.665m +      +      +      +      +    a +      +      +      + 
  160.0000m    3.571m +      +      +      +      +      +   a  +      +      + 
  180.0000m    4.225m +      +      +      +      +      +      + a    +      + 
  200.0000m    4.612m-+------+------+------+------+------+------+---a--+------+-
  220.0000m    4.814m +      +      +      +      +      +      +     a+      + 
  240.0000m    4.913m +      +      +      +      +      +      +     a+      + 
  260.0000m    4.960m +      +      +      +      +      +      +      a      + 
  280.0000m    4.981m +      +      +      +      +      +      +      a      + 
  300.0000m    4.991m +      +      +      +      +      +      +      a      + 
  320.0000m    4.996m +      +      +      +      +      +      +      a      + 
  340.0000m    4.998m +      +      +      +      +      +      +      a      + 
  360.0000m    4.999m +      +      +      +      +      +      +      a      + 
  380.0000m    5.000m +      +      +      +      +      +      +      a      + 
  400.0000m    5.000m-+------+------+------+------+------+------+------a------+-
  420.0000m    5.000m +      +      +      +      +      +      +      a      + 
  440.0000m    5.000m +      +      +      +      +      +      +      a      + 
  460.0000m    5.000m +      +      +      +      +      +      +      a      + 
  480.0000m    5.000m +      +      +      +      +      +      +      a      + 
  500.0000m    5.000m +      +      +      +      +      +      +      a      + 
  520.0000m    5.000m +      +      +      +      +      +      +      a      + 
  540.0000m    5.000m +      +      +      +      +      +      +      a      + 
  560.0000m    5.000m +      +      +      +      +      +      +      a      + 
  580.0000m    5.000m +      +      +      +      +      +      +      a      + 
  600.0000m    5.000m-+------+------+------+------+------+------+------a------+-
  620.0000m    5.000m +      +      +      +      +      +      +      a      + 
  640.0000m    5.000m +      +      +      +      +      +      +      a      + 
  660.0000m    5.000m +      +      +      +      +      +      +      a      + 
  680.0000m    5.000m +      +      +      +      +      +      +      a      + 
  700.0000m    5.000m +      +      +      +      +      +      +      a      + 
  720.0000m    5.000m +      +      +      +      +      +      +      a      + 
  740.0000m    5.000m +      +      +      +      +      +      +      a      + 
  760.0000m    5.000m +      +      +      +      +      +      +      a      + 
  780.0000m    5.000m +      +      +      +      +      +      +      a      + 
  800.0000m    5.000m-+------+------+------+------+------+------+------a------+-
  820.0000m    5.000m +      +      +      +      +      +      +      a      + 
  840.0000m    5.000m +      +      +      +      +      +      +      a      + 
  860.0000m    5.000m +      +      +      +      +      +      +      a      + 
  880.0000m    5.000m +      +      +      +      +      +      +      a      + 
  900.0000m    5.000m +      +      +      +      +      +      +      a      + 
  920.0000m    5.000m +      +      +      +      +      +      +      a      + 
  940.0000m    5.000m +      +      +      +      +      +      +      a      + 
  960.0000m    5.000m +      +      +      +      +      +      +      a      + 
  980.0000m    5.000m +      +      +      +      +      +      +      a      + 
    1.0000     5.000m-+------+------+------+------+------+------+------a------+-
    1.0200     5.000m +      +      +      +      +      +      +      a      + 
    1.0400     5.000m +      +      +      +      +      +      +      a      + 
    1.0600     5.000m +      +      +      +      +      +      +      a      + 
    1.0800     5.000m +      +      +      +      +      +      +      a      + 
    1.1000     5.000m +      +      +      +      +      +      +      a      + 
    1.1200     5.000m +      +      +      +      +      +      +      a      + 
    1.1400     5.000m +      +      +      +      +      +      +      a      + 
    1.1600     5.000m +      +      +      +      +      +      +      a      + 
    1.1800     5.000m +      +      +      +      +      +      +      a      + 
    1.2000     5.000m-+------+------+------+------+------+------+------a------+-
    1.2200     5.000m +      +      +      +      +      +      +      a      + 
    1.2400     5.000m +      +      +      +      +      +      +      a      + 
    1.2600     5.000m +      +      +      +      +      +      +      a      + 
    1.2800     5.000m +      +      +      +      +      +      +      a      + 
    1.3000     5.000m +      +      +      +      +      +      +      a      + 
    1.3200     5.000m +      +      +      +      +      +      +      a      + 
    1.3400     5.000m +      +      +      +      +      +      +      a      + 
    1.3600     5.000m +      +      +      +      +      +      +      a      + 
    1.3800     5.000m +      +      +      +      +      +      +      a      + 
    1.4000     5.000m-+------+------+------+------+------+------+------a------+-
    1.4200     5.000m +      +      +      +      +      +      +      a      + 
    1.4400     5.000m +      +      +      +      +      +      +      a      + 
    1.4600     5.000m +      +      +      +      +      +      +      a      + 
    1.4800     5.000m +      +      +      +      +      +      +      a      + 
    1.5000     5.000m +      +      +      +      +      +      +      a      + 
    1.5200     5.000m +      +      +      +      +      +      +      a      + 
    1.5400     5.000m +      +      +      +      +      +      +      a      + 
    1.5600     5.000m +      +      +      +      +      +      +      a      + 
    1.5800     5.000m +      +      +      +      +      +      +      a      + 
    1.6000     5.000m-+------+------+------+------+------+------+------a------+-
    1.6200     5.000m +      +      +      +      +      +      +      a      + 
    1.6400     5.000m +      +      +      +      +      +      +      a      + 
    1.6600     5.000m +      +      +      +      +      +      +      a      + 
    1.6800     5.000m +      +      +      +      +      +      +      a      + 
    1.7000     5.000m +      +      +      +      +      +      +      a      + 
    1.7200     5.000m +      +      +      +      +      +      +      a      + 
    1.7400     5.000m +      +      +      +      +      +      +      a      + 
    1.7600     5.000m +      +      +      +      +      +      +      a      + 
    1.7800     5.000m +      +      +      +      +      +      +      a      + 
    1.8000     5.000m-+------+------+------+------+------+------+------a------+-
    1.8200     5.000m +      +      +      +      +      +      +      a      + 
    1.8400     5.000m +      +      +      +      +      +      +      a      + 
    1.8600     5.000m +      +      +      +      +      +      +      a      + 
    1.8800     5.000m +      +      +      +      +      +      +      a      + 
    1.9000     5.000m +      +      +      +      +      +      +      a      + 
    1.9200     5.000m +      +      +      +      +      +      +      a      + 
    1.9400     5.000m +      +      +      +      +      +      +      a      + 
    1.9600     5.000m +      +      +      +      +      +      +      a      + 
    1.9800     5.000m +      +      +      +      +      +      +      a      + 
    2.0000     5.000m-+------+------+------+------+------+------+------a------+-
    2.0200     5.000m +      +      +      +      +      +      +      a      + 
    2.0400     5.000m +      +      +      +      +      +      +      a      + 
    2.0600     5.000m +      +      +      +      +      +      +      a      + 
    2.0800     5.000m +      +      +      +      +      +      +      a      + 
    2.1000     5.000m +      +      +      +      +      +      +      a      + 
    2.1200     5.000m +      +      +      +      +      +      +      a      + 
    2.1400     5.000m +      +      +      +      +      +      +      a      + 
    2.1600     5.000m +      +      +      +      +      +      +      a      + 
    2.1800     5.000m +      +      +      +      +      +      +      a      + 
    2.2000     5.000m-+------+------+------+------+------+------+------a------+-
    2.2200     5.000m +      +      +      +      +      +      +      a      + 
    2.2400     5.000m +      +      +      +      +      +      +      a      + 
    2.2600     5.000m +      +      +      +      +      +      +      a      + 
    2.2800     5.000m +      +      +      +      +      +      +      a      + 
    2.3000     5.000m +      +      +      +      +      +      +      a      + 
    2.3200     5.000m +      +      +      +      +      +      +      a      + 
    2.3400     5.000m +      +      +      +      +      +      +      a      + 
    2.3600     5.000m +      +      +      +      +      +      +      a      + 
    2.3800     5.000m +      +      +      +      +      +      +      a      + 
    2.4000     5.000m-+------+------+------+------+------+------+------a------+-
    2.4200     5.000m +      +      +      +      +      +      +      a      + 
    2.4400     5.000m +      +      +      +      +      +      +      a      + 
    2.4600     5.000m +      +      +      +      +      +      +      a      + 
    2.4800     5.000m +      +      +      +      +      +      +      a      + 
    2.5000     5.000m +      +      +      +      +      +      +      a      + 
    2.5200     5.000m +      +      +      +      +      +      +      a      + 
    2.5400     5.000m +      +      +      +      +      +      +      a      + 
    2.5600     5.000m +      +      +      +      +      +      +      a      + 
    2.5800     5.000m +      +      +      +      +      +      +      a      + 
    2.6000     5.000m-+------+------+------+------+------+------+------a------+-
    2.6200     5.000m +      +      +      +      +      +      +      a      + 
    2.6400     5.000m +      +      +      +      +      +      +      a      + 
    2.6600     5.000m +      +      +      +      +      +      +      a      + 
    2.6800     5.000m +      +      +      +      +      +      +      a      + 
    2.7000     5.000m +      +      +      +      +      +      +      a      + 
    2.7200     5.000m +      +      +      +      +      +      +      a      + 
    2.7400     5.000m +      +      +      +      +      +      +      a      + 
    2.7600     5.000m +      +      +      +      +      +      +      a      + 
    2.7800     5.000m +      +      +      +      +      +      +      a      + 
    2.8000     5.000m-+------+------+------+------+------+------+------a------+-
    2.8200     5.000m +      +      +      +      +      +      +      a      + 
    2.8400     5.000m +      +      +      +      +      +      +      a      + 
    2.8600     5.000m +      +      +      +      +      +      +      a      + 
    2.8800     5.000m +      +      +      +      +      +      +      a      + 
    2.9000     5.000m +      +      +      +      +      +      +      a      + 
    2.9200     5.000m +      +      +      +      +      +      +      a      + 
    2.9400     5.000m +      +      +      +      +      +      +      a      + 
    2.9600     5.000m +      +      +      +      +      +      +      a      + 
    2.9800     5.000m +      +      +      +      +      +      +      a      + 
    3.0000     5.000m-+------+------+------+------+------+------+------a------+-
                      +             +             +             +             + 

b

 

          ***** job concluded
1****** HSPICE -- A-2008.03 32-BIT (Feb 26 2008) winnt ******                   
 ******  
 .option post                                                                   
  ******  job statistics summary           tnom=  25.000 temp=  25.000          
 ******  

           total memory used        162 kbytes

  # nodes =       4 # elements=       4
  # diodes=       0 # bjts    =       1 # jfets   =       0 # mosfets =       0
  # va device =       0

    analysis           time    # points   tot. iter  conv.iter

    op point           0.00           1           0
    dc sweep           0.14        1806        3842
    readin             0.01
    errchk             0.03
    setup              0.02
    output             0.02
           total cpu time          0.28 seconds
           total elapsed time         1 seconds
               job started at  14:03:37 11/24/2010
               job ended   at  14:03:37 11/24/2010


 Init: hspice initialization file: C:\synopsys\Hspice_A-2008.03\hspice.ini
