 ****** HSPICE -- A-2008.03 32-BIT (Feb 26 2008) winnt ******                   
  Copyright (C) 2008 Synopsys, Inc. All Rights Reserved.                        
  Unpublished-rights reserved under US copyright laws.
  This program is protected by law and is subject to the 
  terms and conditions of the license agreement found in:
    C:\synopsys\Hspice_A-2008.03\license.warn
  Use of this program is your acceptance to be bound by this 
  license agreement. HSPICE is the trademark of Synopsys, Inc.
  Input File: e:\programing\hspice\cuoi_ki\cau2.sp                              
 Init: read install configuration file: C:\synopsys\Hspice_A-2008.03\meta.cfg
 Init: hspice initialization file: C:\synopsys\Hspice_A-2008.03\hspice.ini




 .option post
 vgs g gnd
 vds d gnd
 m1 d g gnd gnd nmos w=100n l=50n
 .dc vds 0 1.0 0.05 sweep vgs 0 1.0 0.2

 **error** model name nmos in the element     0:m1
 is not defined.


          ***** job aborted
1****** HSPICE -- A-2008.03 32-BIT (Feb 26 2008) winnt ******                   
 ******  
 .include '90nm.sp'                                                             
  ******  job statistics summary           tnom=  25.000 temp=  25.000          
 ******  

           total memory used        145 kbytes

  # nodes =       0 # elements=       3
  # diodes=       0 # bjts    =       0 # jfets   =       0 # mosfets =       1
  # va device =       0

    analysis           time    # points   tot. iter  conv.iter

    op point           0.00           1           0
    readin             0.00
    errchk             0.00
    setup              0.00
    output             0.00
           total cpu time          0.01 seconds
           total elapsed time         1 seconds
               job started at  09:58:32 11/23/2010
               job ended   at  09:58:32 11/23/2010


 Init: hspice initialization file: C:\synopsys\Hspice_A-2008.03\hspice.ini
