 ****** HSPICE -- A-2008.03 32-BIT (Feb 26 2008) winnt ******                   
  Copyright (C) 2008 Synopsys, Inc. All Rights Reserved.                        
  Unpublished-rights reserved under US copyright laws.
  This program is protected by law and is subject to the 
  terms and conditions of the license agreement found in:
    C:\synopsys\Hspice_A-2008.03\license.warn
  Use of this program is your acceptance to be bound by this 
  license agreement. HSPICE is the trademark of Synopsys, Inc.
  Input File: e:\programing\hspice\cuoi_ki\cau3.sp                              
 Init: read install configuration file: C:\synopsys\Hspice_A-2008.03\meta.cfg
 Init: hspice initialization file: C:\synopsys\Hspice_A-2008.03\hspice.ini




 .option post
 mpmos	out	in	vdd	vdd	pmos	w=360n	l=180n
 mnmos	out	in	gnd	gnd	nmos	w=180n	l=180n
 v1	vdd	gnd	dc	1
 v2	in	gnd	pulse (0 1 0 0.05n 0.05n 1n 2n)
 .tran 1n 10n

 **error** model name pmos in the element     0:mpmos
 is not defined.


 ***********************************************************************
 ** runlvl is invoked, you can disable it by:
      a) Add option runlvl=0 to your current simulation job.
      b) Copy $installdir/hspice.ini to your HOME directory and
         customize it by adding option runlvl=0, which disables
         it for all of your simulation jobs.
      c) Re-invoke $installdir/bin/config program and unselect the
         option runlvl setting in box 'hspice.ini' which disables
         it for whole group simulation jobs.

 ** runlvl is invoked, some options are ignored or automatically set:
      Options below are automatically set(user setting will overwrite them):
      if runlvl=6,            .option bypass=0
      if runlvl=[1|2|3|4|5],  .option bypass=2

      Options below are ignored, they are replaced by automated algorithms:
        lvltim    dvdt      ft    fast   trtol  absvar  relvar
          relq  chgtol    dvtr    imin    itl3    rmax

 ** runlvl is invoked, actual option value used by HSPICE are:
       runlvl= 3       bypass= 2      mbypass=   2.00   bytol= 100.00u
 ***********************************************************************


          ***** job aborted
1****** HSPICE -- A-2008.03 32-BIT (Feb 26 2008) winnt ******                   
 ******  
 .include '90nm.sp'                                                             
  ******  job statistics summary           tnom=  25.000 temp=  25.000          
 ******  

           total memory used        145 kbytes

  # nodes =       0 # elements=       4
  # diodes=       0 # bjts    =       0 # jfets   =       0 # mosfets =       2
  # va device =       0

    analysis           time    # points   tot. iter  conv.iter

    op point           0.00           1           0
    readin             0.01
    errchk             0.00
    setup              0.00
    output             0.00
           total cpu time          0.01 seconds
           total elapsed time         1 seconds
               job started at  09:57:03 11/23/2010
               job ended   at  09:57:03 11/23/2010


 Init: hspice initialization file: C:\synopsys\Hspice_A-2008.03\hspice.ini
